file 772400 1690950906                                          
version 3
run Default-0-20230802-00:25:52-22828
attr configname Default
attr datetime 20230802-00:25:52
attr datetimef 20230802-002552
attr experiment Default
attr inifile omnetpp.ini
attr iterationvars ""
attr iterationvarsd ""
attr iterationvarsf ""
attr measurement ""
attr network Scenario
attr processid 22828
attr repetition 0
attr replication #0
attr resultdir results
attr runnumber 0
attr seedset 0
config image-path ../../images:../../../veins/images
config cmdenv-express-mode true
config cmdenv-autoflush true
config cmdenv-status-frequency 1s
config **.cmdenv-log-level info
config image-path ../../images
config network Scenario
config debug-on-errors true
config print-undisposed true
config sim-time-limit 600s
config **.scalar-recording true
config **.vector-recording true
config *.playgroundSizeX 12500m
config *.playgroundSizeY 7500m
config *.playgroundSizeZ 50m
config *.annotations.draw true
config *.obstacles.obstacles "xmldoc(\"config.xml\", \"//AnalogueModel[@type='SimpleObstacleShadowing']/obstacles\")"
config *.manager.updateInterval 1s
config *.manager.host "\"localhost\""
config *.manager.port 9999
config *.manager.autoShutdown true
config *.manager.launchConfig "xmldoc(\"sumo.launchd.xml\")"
config *.rsu[*].applType "\"RSUApplication\""
config *.rsu[0].appl.policySave "\"fed_p_0\""
config *.rsu[0].appl.valueSave "\"fed_v_0\""
config *.rsu[*].appl.headerLength "80 bit"
config *.rsu[*].appl.sendBeacons false
config *.rsu[*].appl.dataOnSch false
config *.rsu[*].appl.beaconInterval 1s
config *.rsu[*].appl.beaconUserPriority 7
config *.rsu[*].appl.dataUserPriority 5
config *.rsu[*].nic.phy80211p.antennaOffsetZ "0 m"
config *.connectionManager.sendDirect true
config *.connectionManager.maxInterfDist 2600m
config *.connectionManager.drawMaxIntfDist false
config *.**.nic.mac1609_4.useServiceChannel false
config *.**.nic.mac1609_4.txPower 20mW
config *.**.nic.mac1609_4.bitrate 6Mbps
config *.**.nic.phy80211p.minPowerLevel -110dBm
config *.**.nic.phy80211p.useNoiseFloor false
config *.**.nic.phy80211p.noiseFloor -98dBm
config *.**.nic.phy80211p.decider "xmldoc(\"config.xml\")"
config *.**.nic.phy80211p.analogueModels "xmldoc(\"config.xml\")"
config *.**.nic.phy80211p.usePropagationDelay true
config *.**.nic.phy80211p.antenna "xmldoc(\"antenna.xml\", \"/root/Antenna[@id='monopole']\")"
config *.node[*].nic.phy80211p.antennaOffsetY "0 m"
config *.node[*].nic.phy80211p.antennaOffsetZ "1.895 m"
config *.node[*].applType "\"VehicleApplication\""
config *.node[*].appl.headerLength "80 bit"
config *.node[*].appl.sendBeacons false
config *.node[*].appl.dataOnSch false
config *.node[*].appl.beaconInterval 1s
config *.node[*].veinsmobility.x 0
config *.node[*].veinsmobility.y 0
config *.node[*].veinsmobility.z 0
config *.node[*].veinsmobility.setHostSpeed false
config *.node[*0].veinsmobility.accidentCount 1
config *.node[*0].veinsmobility.accidentStart 73s
config *.node[*0].veinsmobility.accidentDuration 50s

vector 0 Scenario.node[0].veinsmobility posx ETV
vector 1 Scenario.node[0].veinsmobility posy ETV
vector 2 Scenario.node[1].veinsmobility posx ETV
vector 3 Scenario.node[1].veinsmobility posy ETV
vector 4 Scenario.node[2].veinsmobility posx ETV
vector 5 Scenario.node[2].veinsmobility posy ETV
vector 6 Scenario.node[0].veinsmobility speed ETV
vector 7 Scenario.node[3].veinsmobility posx ETV
vector 8 Scenario.node[3].veinsmobility posy ETV
vector 9 Scenario.node[4].veinsmobility posx ETV
vector 10 Scenario.node[4].veinsmobility posy ETV
vector 11 Scenario.node[0].veinsmobility acceleration ETV
vector 12 Scenario.node[0].veinsmobility co2emission ETV
vector 13 Scenario.node[1].veinsmobility speed ETV
vector 14 Scenario.node[2].veinsmobility speed ETV
vector 15 Scenario.node[5].veinsmobility posx ETV
vector 16 Scenario.node[5].veinsmobility posy ETV
vector 17 Scenario.node[6].veinsmobility posx ETV
vector 18 Scenario.node[6].veinsmobility posy ETV
vector 19 Scenario.node[1].veinsmobility acceleration ETV
vector 20 Scenario.node[1].veinsmobility co2emission ETV
vector 21 Scenario.node[2].veinsmobility acceleration ETV
vector 22 Scenario.node[2].veinsmobility co2emission ETV
vector 23 Scenario.node[3].veinsmobility speed ETV
vector 24 Scenario.node[4].veinsmobility speed ETV
vector 25 Scenario.node[7].veinsmobility posx ETV
vector 26 Scenario.node[7].veinsmobility posy ETV
vector 27 Scenario.node[8].veinsmobility posx ETV
vector 28 Scenario.node[8].veinsmobility posy ETV
vector 29 Scenario.node[9].veinsmobility posx ETV
vector 30 Scenario.node[9].veinsmobility posy ETV
vector 31 Scenario.node[3].veinsmobility acceleration ETV
vector 32 Scenario.node[3].veinsmobility co2emission ETV
vector 33 Scenario.node[4].veinsmobility acceleration ETV
vector 34 Scenario.node[4].veinsmobility co2emission ETV
vector 35 Scenario.node[5].veinsmobility speed ETV
vector 36 Scenario.node[6].veinsmobility speed ETV
vector 37 Scenario.node[10].veinsmobility posx ETV
vector 38 Scenario.node[10].veinsmobility posy ETV
vector 39 Scenario.node[11].veinsmobility posx ETV
vector 40 Scenario.node[11].veinsmobility posy ETV
vector 41 Scenario.node[5].veinsmobility acceleration ETV
vector 42 Scenario.node[5].veinsmobility co2emission ETV
vector 43 Scenario.node[6].veinsmobility acceleration ETV
vector 44 Scenario.node[6].veinsmobility co2emission ETV
vector 45 Scenario.node[7].veinsmobility speed ETV
vector 46 Scenario.node[8].veinsmobility speed ETV
vector 47 Scenario.node[9].veinsmobility speed ETV
vector 48 Scenario.node[12].veinsmobility posx ETV
vector 49 Scenario.node[12].veinsmobility posy ETV
vector 50 Scenario.node[13].veinsmobility posx ETV
vector 51 Scenario.node[13].veinsmobility posy ETV
vector 52 Scenario.node[7].veinsmobility acceleration ETV
vector 53 Scenario.node[7].veinsmobility co2emission ETV
vector 54 Scenario.node[8].veinsmobility acceleration ETV
vector 55 Scenario.node[8].veinsmobility co2emission ETV
vector 56 Scenario.node[9].veinsmobility acceleration ETV
vector 57 Scenario.node[9].veinsmobility co2emission ETV
vector 58 Scenario.node[10].veinsmobility speed ETV
vector 59 Scenario.node[11].veinsmobility speed ETV
vector 60 Scenario.node[14].veinsmobility posx ETV
vector 61 Scenario.node[14].veinsmobility posy ETV
vector 62 Scenario.node[15].veinsmobility posx ETV
vector 63 Scenario.node[15].veinsmobility posy ETV
vector 64 Scenario.node[10].veinsmobility acceleration ETV
vector 65 Scenario.node[10].veinsmobility co2emission ETV
vector 66 Scenario.node[11].veinsmobility acceleration ETV
vector 67 Scenario.node[11].veinsmobility co2emission ETV
vector 68 Scenario.node[12].veinsmobility speed ETV
vector 69 Scenario.node[13].veinsmobility speed ETV
vector 70 Scenario.node[16].veinsmobility posx ETV
vector 71 Scenario.node[16].veinsmobility posy ETV
vector 72 Scenario.node[17].veinsmobility posx ETV
vector 73 Scenario.node[17].veinsmobility posy ETV
vector 74 Scenario.node[18].veinsmobility posx ETV
vector 75 Scenario.node[18].veinsmobility posy ETV
vector 76 Scenario.node[12].veinsmobility acceleration ETV
vector 77 Scenario.node[12].veinsmobility co2emission ETV
vector 78 Scenario.node[13].veinsmobility acceleration ETV
vector 79 Scenario.node[13].veinsmobility co2emission ETV
vector 80 Scenario.node[14].veinsmobility speed ETV
vector 81 Scenario.node[15].veinsmobility speed ETV
vector 82 Scenario.node[19].veinsmobility posx ETV
vector 83 Scenario.node[19].veinsmobility posy ETV
vector 84 Scenario.node[20].veinsmobility posx ETV
vector 85 Scenario.node[20].veinsmobility posy ETV
vector 86 Scenario.node[14].veinsmobility acceleration ETV
vector 87 Scenario.node[14].veinsmobility co2emission ETV
vector 88 Scenario.node[15].veinsmobility acceleration ETV
vector 89 Scenario.node[15].veinsmobility co2emission ETV
vector 90 Scenario.node[16].veinsmobility speed ETV
vector 91 Scenario.node[17].veinsmobility speed ETV
vector 92 Scenario.node[18].veinsmobility speed ETV
vector 93 Scenario.node[16].veinsmobility acceleration ETV
vector 94 Scenario.node[16].veinsmobility co2emission ETV
vector 95 Scenario.node[17].veinsmobility acceleration ETV
vector 96 Scenario.node[17].veinsmobility co2emission ETV
vector 97 Scenario.node[18].veinsmobility acceleration ETV
vector 98 Scenario.node[18].veinsmobility co2emission ETV
vector 99 Scenario.node[19].veinsmobility speed ETV
vector 100 Scenario.node[20].veinsmobility speed ETV
vector 101 Scenario.node[19].veinsmobility acceleration ETV
vector 102 Scenario.node[19].veinsmobility co2emission ETV
vector 103 Scenario.node[20].veinsmobility acceleration ETV
vector 104 Scenario.node[20].veinsmobility co2emission ETV
77	8597 1417 1869 44946 9 66 58 0.973 12.509436427066 207.16506048266 1242.9996077604
76	10014 1623 1869 44946 9 66 58 -4.5 2.5442749146605 10.259377322637 188.1316753705
68	11637 1633 1324 44946 8 66 59 1.5165522359312 19.469979780959 659.00763427596 7986.2806492214
49	13270 1659 886 44946 7 66 60 2348.7265777778 2861.7243105917 155135.87510873 402479859.5386
48	14929 1652 886 44946 7 66 60 5937.0581135842 6219.4182938621 364351.46239809 2213013215.4573
12	16581 1612 90 46131 3 68 66 0.973 10.40960906337 207.95094535065 1007.3330540277
11	18193 1855 90 46131 3 68 66 -4.5 2.3636888966663 -0.84975302706007 176.74477081073
6	20048 1770 21 46131 2 68 67 3.7178716257677 15.488791945779 850.62766191464 11509.983723078
1	21818 1787 2 46131 1 68 68 3048.9442936587 3180.079751856 210824.77589968 653707424.79693
0	23605 1792 2 46131 1 68 68 3005.6378461643 3629.8204743811 227640.86783245 764629906.46157
2	25397 2543 21 67089 2 97 96 6877.9464661492 7433.4976630363 685910.19795967 4903863882.9578
3	27940 2540 21 67089 2 97 96 3012.6589218262 3986.4545809528 328413.39797626 1135641684.639
4	30480 2550 21 67089 2 97 96 6136.3569402558 6703.4371910317 616228.95022528 3960339620.6679
5	33030 2550 21 67089 2 97 96 2979.6207836801 3640.6227449235 312994.33703614 1026170307.6043
7	35580 2529 90 67089 3 97 95 3408.1725030397 4277.5150731722 375014.67383302 1487670529.9994
8	38109 2527 90 67089 3 97 95 3116.3918055386 3428.8615852709 308702.84109172 1004041487.1318
9	40636 2523 90 67089 3 97 95 4541.2652883712 4801.231508283 442089.96699033 2057957404.8648
10	43159 2614 90 67089 3 97 95 3066.5539727465 3862.2068057964 329997.98800215 1152672844.5675
13	45773 2614 90 67089 3 97 95 0 29.098268081143 1402.8250847005 29485.868920539
14	48387 2399 90 67089 3 97 95 0 27.773628488405 1002.5504427254 16984.813606242
15	50786 2600 212 67089 4 97 94 3454.3801458552 4503.8951007309 360608.66967788 1393662068.9282
16	53386 2595 212 67089 4 97 94 1444.792961635 3042.4038903353 191860.97656852 414415934.3181
17	55981 2593 212 67089 4 97 94 5283.2761620982 6655.7244326577 571581.67118075 3492360322.4807
18	58574 2601 212 67089 4 97 94 1673.0560318819 2529.060391024 208106.55902645 466361109.36248
19	61175 2622 212 67089 4 97 94 -4.5 2.5660466220463 1.301283275336 329.6692616131
20	63797 2336 212 67089 4 97 94 -0.68715426480945 19.372311819587 396.95726339328 3143.1533338118
21	66133 2433 212 67089 4 97 94 -4.5 2.5895389665384 3.024819325353 277.32908236884
22	68566 2204 212 67089 4 97 94 0.87005168881485 19.307646302815 321.32862899038 2424.5365179716
23	70770 2220 212 67089 4 97 94 0 28.204021605865 947.99892007057 20712.366750465
24	72990 2594 212 67089 4 97 94 1.4645417755703 23.37152797599 1003.8226477812 11704.840682278
25	75584 2562 348 67089 5 97 93 7925.5192430778 8500.8168957278 770333.94302457 6382864608.7652
26	78146 2571 348 67089 5 97 93 2282.0436817939 2982.3079923715 237310.78199308 610198401.782
27	80717 2569 348 67089 5 97 93 6260.1152540465 7132.6868770621 628419.96011864 4250693310.9957
28	83286 2573 348 67089 5 97 93 2829.7162004378 3218.4599674016 280316.87639679 846468069.23428
29	85859 2575 348 67089 5 97 93 5860.0190544338 6584.8045406949 595722.13438195 3818549369.0212
30	88434 2567 348 67089 5 97 93 2881.9163653483 3335.4165349833 284041.95092447 869716264.6888
31	91001 2239 348 67089 5 97 93 -4.5 2.5901939699426 -2.5865135943983 260.22565630911
32	93240 2117 348 67089 5 97 93 0.973 17.954685956647 319.57773802914 2507.1988611726
33	95357 2650 348 67089 5 97 93 -4.5 2.5855512305163 21.906986200419 214.85019817144
34	98007 2296 348 67089 5 97 93 0.973 17.879862723249 309.65103316284 1847.4545368568
35	100303 2571 348 67089 5 97 93 2.1130978513975 32.103514784484 2149.2486886027 58665.481320596
36	102874 2576 348 67089 5 97 93 2.2737992957234 26.223162198536 1828.5441166198 40616.675502144
37	105450 2554 563 67089 6 97 92 2747.8931846866 3613.6992232371 298544.7454242 976265985.57769
38	108004 2547 563 67089 6 97 92 1120.1121960454 1976.7467040819 132379.66309541 200824493.24497
39	110551 2551 563 67089 6 97 92 3890.1362688586 4321.1210668335 374034.88170919 1521707662.5945
40	113102 2549 563 67089 6 97 92 1840.0386192487 2728.8929292111 198506.50844339 433591985.64587
41	115651 2620 563 67089 6 97 92 -4.5 2.5767042224528 22.002779552667 226.87137340734
42	118271 2424 563 67089 6 97 92 -1.4804428138683 20.995052964794 560.331120055 5802.5570883881
43	120695 2638 563 67089 6 97 92 -4.5 2.5675610542763 12.662596387117 240.1154427202
44	123333 2355 563 67089 6 97 92 -0.26764121541748 19.231697278238 446.16093148249 3622.1679469525
45	125688 2548 563 67089 6 97 92 2.208746208949 16.932148041182 1201.8238393374 17435.772605316
46	128236 2521 563 67089 6 97 92 0 29.146771402216 1188.4200437455 21360.130372717
47	130757 2426 563 67089 6 97 92 0 35.125272541038 1054.9576905389 21856.776238504
50	133183 2528 886 67089 7 97 91 3406.3707254944 4107.0284090568 342187.97273301 1292061283.6502
51	135711 2525 886 67089 7 97 91 3015.3661557879 3422.7221219982 294502.3683717 955092532.69384
52	138236 2607 886 67089 7 97 91 -4.5 2.5851815555245 13.555355657639 152.33571982289
53	140843 2238 886 67089 7 97 91 0.973 11.430638845243 290.92380423176 1452.1906951485
54	143081 2486 886 67089 7 97 91 -4.5 2.6 3.9437010647422 459.6288754023
55	145567 2198 886 67089 7 97 91 0.973 20.524337866428 468.20714191848 4903.4995668024
56	147765 2373 886 67089 7 97 91 -4.5 2.558692760556 16.843520138408 503.97643332305
57	150138 2198 886 67089 7 97 91 0.33709165783511 24.295273820023 485.88171661656 5292.9132799548
58	152336 2342 886 67089 7 97 91 0 31.238939500084 1403.8202445294 31144.292672238
59	154678 2526 886 67089 7 97 91 0.049856999797546 26.209341606188 1316.8482821459 24645.895950317
60	157204 2497 1324 67089 8 97 90 3070.3680336171 3377.9647631653 298561.86872715 991312904.73313
61	159701 2503 1324 67089 8 97 90 2906.543362919 3420.7220210672 298105.51186754 990182053.76652
62	162204 2496 1324 67089 8 97 90 4291.6280358668 5051.539375186 415223.83511477 1919894083.0171
63	164700 2498 1324 67089 8 97 90 2961.8089075383 3164.9589705697 277407.76564233 855360351.65418
64	167198 2300 1324 67089 8 97 90 -4.5 2.5730224694125 -1.5972831639228 350.16787677893
65	169498 2215 1324 67089 8 97 90 0.36797558469599 19.137683016181 426.12637978439 3726.1387081566
66	171713 2580 1324 67089 8 97 90 -4.5 2.5366576599656 23.855582980572 251.4128989068
67	174293 2314 1324 67089 8 97 90 -0.22077308510392 18.58281324789 388.20334382299 2822.7087773281
69	176607 2379 1324 67089 8 97 90 0 27.367252033102 1214.6489985442 23613.214689724
70	178986 2472 1869 67089 9 97 89 6178.5460707181 6504.2006873026 566991.50236865 3612763650.3709
71	181458 2473 1869 67089 9 97 89 1298.005031868 2190.2998511173 151248.01881842 262414658.58579
72	183931 2474 1869 67089 9 97 89 4982.1023851263 5245.6378952796 457061.89858776 2347847241.8413
73	186405 2467 1869 67089 9 97 89 3064.7560200001 3381.9133227216 288184.74321452 933819522.96078
74	188872 2465 1869 67089 9 97 89 6136.6047519482 6785.1522369903 581094.51308593 3796836944.7034
75	191337 2471 1869 67089 9 97 89 1427.3263081071 2240.4089971938 156113.88735651 278807505.95433
78	193808 2427 1869 67089 9 97 89 -4.5 2.529327815515 -13.227847749235 209.13786694352
79	196235 2144 1869 67089 9 97 89 0.973 16.920828274092 311.54124836973 2394.7863452794
80	198379 1776 1869 67089 9 97 89 0 28.648758986239 620.16316793056 14527.709890453
81	200155 2207 1869 67089 9 97 89 0 28.888301519206 814.50469467986 15116.881304953
82	202362 2441 2304 67089 10 97 88 7045.8167488471 7974.0672576469 665126.30720786 5034594058.341
83	204803 2447 2304 67089 10 97 88 2340.2479476929 2633.4712183961 221057.45872531 556115127.34291
84	207250 2445 2304 67089 10 97 88 2667.6003750022 2981.3064637432 245744.10074686 687142657.16828
85	209695 2447 2304 67089 10 97 88 1428.781467462 2382.8080479817 159991.91273862 300933500.82729
86	212142 1752 2304 67089 10 97 88 -4.5 2.5926332155941 1.4734899265226 175.35173419005
87	213894 1873 2304 67089 10 97 88 0.48304243083098 17.581139849351 248.34105975597 2051.1594152541
88	215767 2153 2304 67089 10 97 88 -4.5 2.590813798923 19.522108717294 366.57305001555
89	217920 2068 2304 67089 10 97 88 0.973 19.870859401044 393.4016634399 3634.0279857807
90	219988 2451 2304 67089 10 97 88 0.0076719171246821 29.359531105159 1140.127985015 18521.588797436
91	222439 2447 2304 67089 10 97 88 0.57463263370408 11.315671896654 772.27943045654 7446.3414743342
92	224886 2301 2304 67089 10 97 88 0 30.743810187662 1220.2342530776 26904.350489236
93	227187 2448 3093 67089 11 97 87 -4.5 2.4367390892236 26.680036769889 276.01283195271
94	229635 2171 3093 67089 11 97 87 -0.42940018586676 21.989064476984 395.66714026562 3308.9261584949
95	231806 2515 3093 67089 11 97 87 -4.5 2.5418741665548 4.1217672586799 144.17718839098
96	234321 2181 3093 67089 11 97 87 0.973 7.5720841965804 192.92534711839 600.15688908965
97	236502 2263 3093 67089 11 97 87 -4.5 2.5919006659184 27.951703813984 339.75925411226
98	238765 2151 3093 67089 11 97 87 -1.2322453153966 21.747078394546 479.90308005598 5187.6234689174
99	240916 2424 3093 67089 11 97 87 1.3205505888676 25.982885677095 1174.5117218214 19142.320767335
100	243340 2399 3093 67089 11 97 87 0 32.634955941791 1360.4019196024 29034.764323604
101	245739 2504 3824 67089 12 97 86 -4.5 2.5601983566536 18.873910382286 318.50303187184
102	248243 2231 3824 67089 12 97 86 0.973 18.883070468244 387.23990809599 2959.0805404109
103	250474 2312 3824 67089 12 97 86 -4.5 2.5998513045954 -2.0578714020317 441.82193711119
104	252786 2183 3824 67089 12 97 86 -0.40225427681384 19.170761943554 500.2960553249 5615.2996548401
2	254969 81 67455 68891 98 100 3 7419.3524547827 7430.8655786147 22275.955190631 165406126.42406
3	255050 82 67455 68891 98 100 3 3990.5593220862 3996.2642764925 11979.982711265 47840011.569891
4	255132 82 67455 68891 98 100 3 6693.8127795295 6702.7865133161 20095.404154651 134608463.14703
5	255214 82 67455 68891 98 100 3 2956.4185986097 2972.9710906966 8894.7789241896 26372501.350685
7	255296 82 67455 68891 98 100 3 3408.1725030397 3408.1725030397 10224.517509119 34846919.431427
8	255378 82 67455 68891 98 100 3 3428.8615852709 3428.8615852709 10286.584755813 35271275.31284
9	255460 82 67455 68891 98 100 3 4704.9212406348 4750.9065528053 14183.869970519 67061779.782305
10	255542 83 67455 68891 98 100 3 3046.0511779989 3059.6583245146 9158.5262953534 27959627.212405
13	255625 85 67455 68891 98 100 3 5.2138238981599 7.0930163255855 18.05697258312 110.55886238637
14	255710 85 67455 68891 98 100 3 6.8151504170382 10.267246568622 25.662121706642 225.47430359557
15	255795 85 67455 68891 98 100 3 4511.8108051121 4522.7609411052 13552.764946456 61225873.066199
16	255880 84 67455 68891 98 100 3 3060.350316581 3085.1962727646 9220.3786173658 28338772.102217
17	255964 85 67455 68891 98 100 3 5266.9212014325 5274.8468438765 15811.820152591 83337917.381916
18	256049 85 67455 68891 98 100 3 1659.3737406128 1666.9024870897 4989.6784760271 8298992.1522325
19	256134 86 67455 68891 98 100 3 0.53630846121439 2.3825840641279 4.2617764915535 7.7676709349135
20	256220 85 67455 68891 98 100 3 2.1481562465925 4.3684000128606 10.297237907988 37.991047659706
21	256305 83 67455 68891 98 100 3 1.6875218476402 1.85845743299 5.3105535845738 9.4153164906368
22	256388 85 67455 68891 98 100 3 4.5204300493654 5.8808918311335 15.632185726412 82.381113135184
23	256473 43 67455 68891 98 100 3 0 0 0 0
24	256516 84 67455 68891 98 100 3 23.844341527329 24.30262368711 72.258863637502 1740.5537865133
25	256600 85 67455 68891 98 100 3 7883.7933352273 7910.7907875652 23691.639014535 187098284.20039
26	256685 83 67455 68891 98 100 3 2990.2415763369 3008.850527336 8997.459115597 26984930.918899
27	256768 85 67455 68891 98 100 3 6231.6301992219 6246.3325088914 18714.916164308 116749473.16623
28	256853 85 67455 68891 98 100 3 2883.3157182079 2886.1920934922 8653.8627704066 24963117.859216
29	256938 85 67455 68891 98 100 3 5832.0692535119 5846.2044007037 17515.161454612 102260396.86698
30	257023 84 67455 68891 98 100 3 2890.467914682 2890.8899963249 8672.1040234261 25068462.823124
31	257107 43 67455 68891 98 100 3 0 0 0 0
32	257150 55 67455 68891 98 100 3 0.973 0.973 2.919 2.840187
33	257205 89 67455 68891 98 100 3 -0.26755689573474 0.9310957111201 0.47281355133901 0.974902042067
34	257294 85 67455 68891 98 100 3 1.9750975719117 9.0616884807505 13.496637191035 92.066076163693
35	257379 85 67455 68891 98 100 3 11.327135058062 19.615877404064 46.770147520188 763.58483910099
36	257464 84 67455 68891 98 100 3 5.2229322896374 10.43639568284 21.595723655318 171.43817025419
37	257548 85 67455 68891 98 100 3 3613.6992232371 3613.6992232371 10841.097669711 39176466.228074
38	257633 85 67455 68891 98 100 3 1976.7467040819 1976.7467040819 5930.2401122456 11722582.596296
39	257718 85 67455 68891 98 100 3 4335.3672907847 4364.4778633838 13049.428133826 56762948.6629
40	257803 85 67455 68891 98 100 3 2750.4732560953 2792.6980626885 8314.2643930295 23043222.427972
41	257888 64 67455 68891 98 100 3 -4.5 -3.7887423460023 -12.788742346002 54.854568564391
42	257952 55 67455 68891 98 100 3 0.973 0.973 2.919 2.840187
43	258007 65 67455 68891 98 100 3 -4.5 -0.71346339320298 -9.713463393203 41.009030013441
44	258072 55 67455 68891 98 100 3 0.973 0.973 2.919 2.840187
45	258127 85 67455 68891 98 100 3 15.973061993859 16.905435180503 49.605933246091 820.73956563563
46	258212 85 67455 68891 98 100 3 5.4266557970597 14.062412716663 29.051481230385 318.6397815173
47	258297 83 67455 68891 98 100 3 4.820632158564 13.820632158564 27.961896475692 301.12255150577
50	258380 85 67455 68891 98 100 3 3406.3707254944 3406.3707254944 10219.112176483 34810084.558517
51	258465 85 67455 68891 98 100 3 3422.7221219982 3422.7221219982 10268.166365995 35145080.173249
52	258550 89 67455 68891 98 100 3 -0.75437407786958 0.96333420514129 1.1413333139149 2.366412799328
53	258639 74 67455 68891 98 100 3 0.973 6.232807599936 13.376335399102 77.870032898104
54	258713 64 67455 68891 98 100 3 -4.5 -4.1357569196029 -13.135756919603 57.604485298043
55	258777 55 67455 68891 98 100 3 0.973 0.973 2.919 2.840187
56	258832 52 67455 68891 98 100 3 -4.5 -4.5 -13.5 60.75
57	258884 55 67455 68891 98 100 3 0.973 0.973 2.919 2.840187
58	258939 43 67455 68891 98 100 3 0 0 0 0
59	258982 85 67455 68891 98 100 3 25.044547711306 26.241122007759 77.144960895136 1984.5287944188
60	259067 84 67455 68891 98 100 3 3380.386886155 3390.8378479249 10155.390132347 34377372.253835
61	259151 84 67455 68891 98 100 3 3425.495375642 3436.9882769446 10293.458608375 35318496.131649
62	259235 85 67455 68891 98 100 3 5073.4760619967 5105.5520891781 15270.263451288 77727498.368082
63	259320 85 67455 68891 98 100 3 2953.2594747476 2957.2930286892 8864.5985704982 26193711.749041
64	259405 43 67455 68891 98 100 3 0 0 0 0
65	259448 55 67455 68891 98 100 3 0.973 0.973 2.919 2.840187
66	259503 87 67455 68891 98 100 3 -0.81474346476607 1.196574296453 0.80452108951285 2.274264014372
67	259590 74 67455 68891 98 100 3 0.973 11.612383952638 19.174512132769 179.21080023767
69	259664 43 67455 68891 98 100 3 0 0 0 0
70	259707 84 67455 68891 98 100 3 6122.8383408578 6160.130441024 18424.498679683 113154745.88429
71	259791 85 67455 68891 98 100 3 2212.3018173287 2256.8563365839 6703.6828618131 14980780.525153
72	259876 84 67455 68891 98 100 3 5039.5439350235 5058.0701547505 15146.341866463 76470728.926521
73	259960 85 67455 68891 98 100 3 3057.6247663986 3062.7429138851 9180.5734194603 28094322.534737
74	260045 85 67455 68891 98 100 3 6086.8549784039 6117.1516305702 18304.565791707 111686169.94154
75	260130 85 67455 68891 98 100 3 2263.6505005456 2299.8472490876 6846.9719804957 15627665.520769
78	260215 43 67455 68891 98 100 3 0 0 0 0
79	260258 55 67455 68891 98 100 3 0.973 0.973 2.919 2.840187
80	260313 84 67455 68891 98 100 3 5.354175545671 9.0743830370717 21.169577764999 156.4529628929
81	260397 85 67455 68891 98 100 3 13.931939944957 22.423830158404 54.416662530493 1023.1229448672
82	260482 85 67455 68891 98 100 3 6982.2062219913 7026.3897220381 21013.728304474 147193235.63973
83	260567 85 67455 68891 98 100 3 2615.7975519132 2638.2627293624 7880.6661756648 20701885.586178
84	260652 85 67455 68891 98 100 3 2708.7550921653 2708.7550921653 8126.2652764959 22012062.447995
85	260737 85 67455 68891 98 100 3 2382.8080479817 2382.8080479817 7148.424143945 17033322.580579
86	260822 85 67455 68891 98 100 3 1.3868436365854 2.3333638548153 5.7118490162073 11.33455811463
87	260907 84 67455 68891 98 100 3 3.716530584136 6.7196708442857 14.388593218836 74.587976703298
88	260991 87 67455 68891 98 100 3 -4.3629377312724 1.1472079576616 -7.3446822557847 37.399560345133
89	261078 65 67455 68891 98 100 3 0.973 9.4330041549323 11.379004154932 90.875025386969
90	261143 85 67455 68891 98 100 3 28.692294611398 29.122200406029 86.794892372856 2511.2137574347
91	261228 85 67455 68891 98 100 3 7.5594138641035 9.6918097137126 26.778567181075 241.84618963017
92	261313 85 67455 68891 98 100 3 21.351703665119 30.308748544389 77.512155874628 2042.8260701192
93	261398 89 67455 68891 98 100 3 -0.46094847160857 0.28810274403077 -0.031042676977815 0.3155847897558
94	261487 85 67455 68891 98 100 3 1.4887992687088 6.7686661467579 14.049188196695 81.575417443375
95	261572 86 67455 68891 98 100 3 0.16446611045394 1.9679297391552 3.8484933010994 6.8447870227508
96	261658 84 67455 68891 98 100 3 2.0457790157537 6.168031692482 12.854801227482 63.768619740495
97	261742 76 67455 68891 98 100 3 -4.5 0.53530076255556 -8.4217441167139 40.401795962215
98	261818 64 67455 68891 98 100 3 0.973 9.054183422554 11.000183422554 83.871695449252
99	261882 84 67455 68891 98 100 3 22.309655671625 25.72029668005 71.878087436602 1727.9879445252
100	261966 46 67455 68891 98 100 3 0 0 0 0
101	262012 88 67455 68891 98 100 3 1.5384794133017 2.1151947004721 5.5258357088965 10.345956564311
102	262100 88 67455 68891 98 100 3 12.355647879386 15.527324112158 42.467575827436 606.47049765331
103	262188 46 67455 68891 98 100 3 0 0 0 0
104	262234 58 67455 68891 98 100 3 0.973 0.973 2.919 2.840187
2	262292 56 69763 70117 101 102 2 7401.6682069012 7411.5154919481 14813.183698849 109715254.13244
3	262348 55 69763 70117 101 102 2 4000.0757388947 4004.864910097 8004.9406489917 32039548.865021
4	262403 56 69763 70117 101 102 2 6681.2775167479 6687.9482069085 13369.225723656 89368120.474092
5	262459 55 69763 70117 101 102 2 2933.4963424631 2945.694512633 5879.1908550961 17282516.953
7	262514 56 69763 70117 101 102 2 3408.1725030397 3408.1725030397 6816.3450060793 23231279.620951
8	262570 56 69763 70117 101 102 2 3428.8615852709 3428.8615852709 6857.7231705418 23514183.541893
9	262626 56 69763 70117 101 102 2 4773.2698506394 4795.5945298105 9568.8643804498 45781831.961371
10	262682 58 69763 70117 101 102 2 3032.8279155723 3039.4338331155 6072.2617486879 18436203.191362
13	262740 58 69763 70117 101 102 2 8.7063893348872 10.939735114175 19.646124449062 195.47901961895
14	262798 58 69763 70117 101 102 2 12.222929954925 13.903038439667 26.125968394591 342.69449453785
15	262856 58 69763 70117 101 102 2 4525.8087369315 4527.1359059099 9052.9446428414 40977904.233864
16	262914 58 69763 70117 101 102 2 3092.1117486642 3095.1231069073 6187.2348555715 19140942.113139
17	262972 58 69763 70117 101 102 2 5268.9102845125 5273.6573531424 10542.567637655 55572877.464595
18	263030 58 69763 70117 101 102 2 1647.2801632431 1654.1093971641 3301.3895604072 5449609.8340007
19	263088 58 69763 70117 101 102 2 1.6133730093017 2.2333457792876 3.8467187885893 7.5908058370052
20	263146 58 69763 70117 101 102 2 4.9762056235836 7.6468421778778 12.623047801461 83.236817701556
21	263204 58 69763 70117 101 102 2 1.6801084847422 1.9556833863026 3.6357918710448 6.6474620279627
22	263262 58 69763 70117 101 102 2 7.6292353942418 7.6583654761371 15.287600870379 116.85579446684
23	263320 30 69763 70117 101 102 2 0 0 0 0
24	263350 58 69763 70117 101 102 2 23.281513609675 23.321787466256 46.60330107593 1085.9346465787
25	263408 58 69763 70117 101 102 2 7859.7459379038 7871.4188882174 15731.164826121 123734841.52218
26	263466 58 69763 70117 101 102 2 3018.7616646051 3028.1109480762 6046.8726126814 18282377.901549
27	263524 58 69763 70117 101 102 2 6230.2564062867 6230.5501388542 12460.806545141 77635849.920853
28	263582 58 69763 70117 101 102 2 2879.7864771147 2879.8438214777 5759.6302985924 16586670.589876
29	263640 58 69763 70117 101 102 2 5830.4249656798 5830.8172135391 11661.242179219 67992284.658126
30	263698 57 69763 70117 101 102 2 2887.7361094312 2890.927382783 5778.6634922142 16696480.970237
31	263755 30 69763 70117 101 102 2 0 0 0 0
32	263785 38 69763 70117 101 102 2 0.973 0.973 1.946 1.893458
33	263823 63 69763 70117 101 102 2 -0.52255406107288 -0.040273856581191 -0.56282791765407 0.27468473026768
34	263886 59 69763 70117 101 102 2 0.46981407006489 3.1728822850339 3.6426963550988 10.287907255113
35	263945 58 69763 70117 101 102 2 3.2911285259182 7.5579582919021 10.84908681782 67.954260516244
36	264003 57 69763 70117 101 102 2 5.7596792628093 8.317261225594 14.076940488403 102.3507395052
37	264060 58 69763 70117 101 102 2 3613.6992232371 3613.6992232371 7227.3984464742 26117644.152049
38	264118 58 69763 70117 101 102 2 1976.7467040819 1976.7467040819 3953.4934081637 7815055.0641971
39	264176 57 69763 70117 101 102 2 4378.8876017623 4393.461356387 8772.3489581493 38477159.318934
40	264233 57 69763 70117 101 102 2 2813.5408596604 2834.220170134 5647.7610297945 15948816.141773
41	264290 60 69763 70117 101 102 2 -4.2668297659839 -3.7691767661599 -8.0360065321438 32.412529746446
42	264350 38 69763 70117 101 102 2 0.973 0.973 1.946 1.893458
43	264388 59 69763 70117 101 102 2 0.53674697317183 2.5575819627848 3.0943289359566 6.829322809571
44	264447 58 69763 70117 101 102 2 2.1505470465898 6.6909465873222 8.841493633912 49.393618833995
45	264505 57 69763 70117 101 102 2 14.95520537494 15.853952211166 30.809157586106 475.00596852057
46	264562 59 69763 70117 101 102 2 0.29914576523119 1.7343759097606 2.0335216749918 3.0975479852137
47	264621 59 69763 70117 101 102 2 0.29237433243764 1.2525818055306 1.5449561379682 1.6544439298147
50	264680 58 69763 70117 101 102 2 3406.3707254944 3406.3707254944 6812.7414509889 23206723.039011
51	264738 58 69763 70117 101 102 2 3422.7221219982 3422.7221219982 6845.4442439965 23430053.448832
52	264796 61 69763 70117 101 102 2 -1.0514829693362 -0.89874683622679 -1.950229805563 1.9133623104318
53	264857 38 69763 70117 101 102 2 0.973 0.973 1.946 1.893458
54	264895 60 69763 70117 101 102 2 -3.6922798872991 -1.4352301445294 -5.1275100318285 15.692816333919
55	264955 38 69763 70117 101 102 2 0.973 0.973 1.946 1.893458
56	264993 61 69763 70117 101 102 2 -3.5680503530334 -0.96020747309296 -4.5282578261264 13.652981713165
57	265054 38 69763 70117 101 102 2 0.973 0.973 1.946 1.893458
58	265092 30 69763 70117 101 102 2 0 0 0 0
59	265122 58 69763 70117 101 102 2 25.299364712827 25.339181461108 50.638546173936 1282.1319719916
60	265180 57 69763 70117 101 102 2 3401.373502737 3414.3539132448 6815.7274159818 23227154.350011
61	265237 56 69763 70117 101 102 2 3437.43659396 3439.6572287321 6877.093822692 23647212.188664
62	265293 57 69763 70117 101 102 2 5120.790047401 5136.8386666263 10257.628714027 52609602.196509
63	265350 57 69763 70117 101 102 2 2941.474751475 2948.6322388335 5890.1069903085 17346705.793453
64	265407 30 69763 70117 101 102 2 0 0 0 0
65	265437 38 69763 70117 101 102 2 0.973 0.973 1.946 1.893458
66	265475 63 69763 70117 101 102 2 -0.90194054665044 -0.039816748281009 -0.94175729493145 0.81508212313577
67	265538 48 69763 70117 101 102 2 0.973 3.5835692699532 4.5565692699532 13.788697712553
69	265586 30 69763 70117 101 102 2 0 0 0 0
70	265616 57 69763 70117 101 102 2 6092.385650301 6106.1678738257 12198.553524127 74402449.015335
71	265673 58 69763 70117 101 102 2 2276.7732798793 2293.2395110831 4570.0127909624 10442644.023165
72	265731 58 69763 70117 101 102 2 5067.1276436433 5075.6751840866 10142.80282773 51438261.131327
73	265789 58 69763 70117 101 102 2 3052.7611116448 3055.1224985484 6107.8836101932 18653123.885908
74	265847 58 69763 70117 101 102 2 6067.8613645046 6076.0390175818 12143.900382086 73737191.682024
75	265905 58 69763 70117 101 102 2 2312.7695552212 2322.5423817449 4635.3119369661 10743106.130559
78	265963 30 69763 70117 101 102 2 0 0 0 0
79	265993 38 69763 70117 101 102 2 0.973 0.973 1.946 1.893458
80	266031 58 69763 70117 101 102 2 11.041280735843 13.214557878487 24.25583861433 296.53442021157
81	266089 58 69763 70117 101 102 2 15.925768511528 17.572345087276 33.498113598804 562.4174145491
82	266147 58 69763 70117 101 102 2 6937.0063923551 6959.8712836366 13896.877675992 96561865.972365
83	266205 58 69763 70117 101 102 2 2649.6189676169 2659.5278281833 5309.1467958002 14093568.942437
84	266263 58 69763 70117 101 102 2 2708.7550921653 2708.7550921653 5417.5101843306 14674708.298663
85	266321 58 69763 70117 101 102 2 2382.8080479817 2382.8080479817 4765.6160959634 11355548.387053
86	266379 58 69763 70117 101 102 2 1.9668976987712 2.1732771426439 4.1401748414151 8.59182009617
87	266437 58 69763 70117 101 102 2 7.0007909530296 8.8818965681181 15.882687521148 127.89916061477
88	266495 58 69763 70117 101 102 2 1.6465765757486 1.9938285665703 3.640405142319 6.686566772676
89	266553 58 69763 70117 101 102 2 9.4320936011483 9.9039346424232 19.336028243571 187.05231110221
90	266611 58 69763 70117 101 102 2 21.473260721355 25.973260721355 47.446521442709 1135.7111985067
91	266669 58 69763 70117 101 102 2 8.8672428959168 9.3962648755058 18.263507771423 166.91779018585
92	266727 58 69763 70117 101 102 2 12.743425302482 16.851703665119 29.595128967601 446.37480485693
93	266785 48 69763 70117 101 102 2 -4.5 -3.1489396846745 -7.6489396846745 30.165821137718
94	266833 38 69763 70117 101 102 2 0.973 0.973 1.946 1.893458
95	266871 62 69763 70117 101 102 2 -0.52902197958902 -0.29554483820684 -0.82456681779586 0.36721100627899
96	266933 38 69763 70117 101 102 2 0.973 0.973 1.946 1.893458
97	266971 48 69763 70117 101 102 2 -4.5 -4.1082783626376 -8.6082783626376 37.127951104916
98	267019 38 69763 70117 101 102 2 0.973 0.973 1.946 1.893458
99	267057 58 69763 70117 101 102 2 25.057043163881 25.140120291624 50.197163455505 1259.8810603939
100	267115 32 69763 70117 101 102 2 0 0 0 0
101	267147 63 69763 70117 101 102 2 -0.66325351616833 0.08307712774258 -0.58017638842575 0.44680703586361
102	267210 62 69763 70117 101 102 2 -0.23314565482282 4.2939311045526 4.0607854497298 18.492201227007
103	267272 32 69763 70117 101 102 2 0 0 0 0
104	267304 40 69763 70117 101 102 2 0.973 0.973 1.946 1.893458
2	267344 56 71180 71564 103 104 2 7378.0247968038 7390.6162030689 14768.640999873 109056457.76332
3	267400 56 71180 71564 103 104 2 4010.2399894442 4016.6458136226 8026.8858030668 32215468.365029
4	267456 56 71180 71564 103 104 2 6665.6063544427 6673.7715738228 13339.377928265 88969535.091952
5	267512 54 71180 71564 103 104 2 2904.839711746 2919.770810789 5824.610522535 16963155.338472
7	267566 56 71180 71564 103 104 2 3408.1725030397 3408.1725030397 6816.3450060793 23231279.620951
8	267622 56 71180 71564 103 104 2 3428.8615852709 3428.8615852709 6857.7231705418 23514183.541893
9	267678 55 71180 71564 103 104 2 4817.8797566693 4840.469981125 9658.3497377943 46642114.987896
10	267733 56 71180 71564 103 104 2 3019.54917912 3026.2336720478 6045.7828511678 18275767.48296
13	267789 58 71180 71564 103 104 2 12.278104455346 14.121297553178 26.399402008524 350.16289360178
14	267847 58 71180 71564 103 104 2 15.643870499684 17.017933103931 32.661803603615 534.34073134074
15	267905 58 71180 71564 103 104 2 4527.1363289378 4527.1363289378 9054.2726578756 40989926.681576
16	267963 58 71180 71564 103 104 2 3095.1240667613 3095.1240667613 6190.2481335226 19159585.97729
17	268021 57 71180 71564 103 104 2 5279.707538034 5286.8044940033 10566.512032037 55825613.444986
18	268078 58 71180 71564 103 104 2 1628.3664067058 1638.5762385453 3266.9426452511 5336509.2440132
19	268136 58 71180 71564 103 104 2 1.3383693411713 1.8431930978317 3.181562439003 5.1885932892818
20	268194 58 71180 71564 103 104 2 5.8335500605665 8.3241600683334 14.1577101289 103.32194715237
21	268252 58 71180 71564 103 104 2 1.3740626042476 1.7408320600167 3.1148946642643 4.9185443015736
22	268310 58 71180 71564 103 104 2 8.0217133735861 8.7815737657281 16.803287139314 141.46392325089
23	268368 30 71180 71564 103 104 2 0 0 0 0
24	268398 58 71180 71564 103 104 2 23.240370373668 23.558440149536 46.798810523204 1095.1149173845
25	268456 58 71180 71564 103 104 2 7845.5596661006 7851.4011982707 15696.960864371 123197307.25055
26	268514 58 71180 71564 103 104 2 3034.7945485565 3039.4727389263 6074.2672874828 18448372.482624
27	268572 58 71180 71564 103 104 2 6230.2337384816 6230.2440437005 12460.477782182 77631753.28018
28	268630 58 71180 71564 103 104 2 2879.7820517599 2879.7840636111 5759.5661153709 16586300.918666
29	268688 58 71180 71564 103 104 2 5830.3073664005 5830.3261423083 11660.633508709 67985186.912388
30	268746 56 71180 71564 103 104 2 2887.73906034 2887.7396209968 5775.4786813368 16678076.999288
31	268802 30 71180 71564 103 104 2 0 0 0 0
32	268832 38 71180 71564 103 104 2 0.973 0.973 1.946 1.893458
33	268870 62 71180 71564 103 104 2 -0.041143236006608 0.31806977586821 0.2769265398616 0.10286114818995
34	268932 58 71180 71564 103 104 2 3.1602580795868 5.2601750550791 8.4204331346659 37.65667273967
35	268990 47 71180 71564 103 104 2 0 0.0010490292356471 0.0010490292356471 1.1004623372423e-06
36	269037 57 71180 71564 103 104 2 10.60042989273 12.434460359802 23.034890252532 266.98491835016
37	269094 58 71180 71564 103 104 2 3613.6992232371 3613.6992232371 7227.3984464742 26117644.152049
38	269152 58 71180 71564 103 104 2 1976.7467040819 1976.7467040819 3953.4934081637 7815055.0641971
39	269210 58 71180 71564 103 104 2 4408.4318887304 4423.5445581815 8831.976446912 39002018.175793
40	269268 57 71180 71564 103 104 2 2855.3690174128 2876.718661558 5732.0876789709 16428642.483358
41	269325 63 71180 71564 103 104 2 -3.2900794966826 -0.0010490292356471 -3.2911285259182 10.824624194953
42	269388 38 71180 71564 103 104 2 0.973 0.973 1.946 1.893458
43	269426 58 71180 71564 103 104 2 1.8340304670721 2.2831686671358 4.1171991342079 8.5765269167392
44	269484 58 71180 71564 103 104 2 7.3834908583354 7.5642220719805 14.947712930316 111.73339280936
45	269542 58 71180 71564 103 104 2 7.4837680809811 10.691152764359 18.17492084534 170.30753212077
46	269600 62 71180 71564 103 104 2 0.010495133824297 0.012590416321394 0.023085550145691 0.00026866641713592
47	269662 62 71180 71564 103 104 2 0.018784033244708 0.098866138256685 0.11765017150139 0.010127353198728
50	269724 58 71180 71564 103 104 2 3406.3707254944 3406.3707254944 6812.7414509889 23206723.039011
51	269782 58 71180 71564 103 104 2 3422.7221219982 3422.7221219982 6845.4442439965 23430053.448832
52	269840 59 71180 71564 103 104 2 -4.2640526105805 -3.207384683378 -7.4714372939585 28.469461172966
53	269899 38 71180 71564 103 104 2 0.973 0.973 1.946 1.893458
54	269937 62 71180 71564 103 104 2 -0.2865553489098 -0.002095282497097 -0.2886506314069 0.08211835819756
55	269999 48 71180 71564 103 104 2 0.973 1.1105009857074 2.0835009857074 2.179941439257
56	270047 63 71180 71564 103 104 2 -0.19350819418096 -0.080082105011977 -0.27359029919293 0.043858564758324
57	270110 48 71180 71564 103 104 2 0.973 1.1105436145296 2.0835436145296 2.1800361197724
58	270158 30 71180 71564 103 104 2 0 0 0 0
59	270188 58 71180 71564 103 104 2 25.909591280755 26.155588836542 52.065180117297 1355.421747722
60	270246 58 71180 71564 103 104 2 3428.6380239846 3444.2183453467 6872.8563693313 23618198.709936
61	270304 58 71180 71564 103 104 2 3428.6819190672 3433.2492467761 6861.9311658432 23543060.092627
62	270362 58 71180 71564 103 104 2 5155.3849200104 5176.8759572979 10332.260877308 53378038.350719
63	270420 58 71180 71564 103 104 2 2934.0289367737 2935.9994029662 5870.02833974 17228618.296044
64	270478 30 71180 71564 103 104 2 0 0 0 0
65	270508 38 71180 71564 103 104 2 0.973 0.973 1.946 1.893458
66	270546 60 71180 71564 103 104 2 0.24599755578674 0.61022656792775 0.85622412371449 0.43289126165793
67	270606 58 71180 71564 103 104 2 5.5753651045168 7.7770348941035 13.35239999862 91.566967792767
69	270664 30 71180 71564 103 104 2 0 0 0 0
70	270694 58 71180 71564 103 104 2 6073.1340671156 6081.4916702837 12154.625737399 73867498.33289
71	270752 58 71180 71564 103 104 2 2306.2550301953 2316.2402278544 4622.4952580497 10683781.057432
72	270810 58 71180 71564 103 104 2 5085.1108466677 5094.0159317093 10179.126778377 51807350.635406
73	270868 58 71180 71564 103 104 2 3047.6942036233 3050.1543676121 6097.8485712354 18591881.625062
74	270926 58 71180 71564 103 104 2 6058.9081584563 6062.0549178094 12120.963076266 73458877.899145
75	270984 58 71180 71564 103 104 2 2329.4804131484 2333.2372066249 4662.7176197733 10870474.857621
78	271042 30 71180 71564 103 104 2 0 0 0 0
79	271072 38 71180 71564 103 104 2 0.973 0.973 1.946 1.893458
80	271110 58 71180 71564 103 104 2 14.891365488269 16.242681399803 31.134046888072 485.57746516072
81	271168 58 71180 71564 103 104 2 19.366758360732 21.939092640015 41.305851000747 856.39511527014
82	271226 58 71180 71564 103 104 2 6893.8801217979 6914.9136129649 13808.793734763 95341613.408488
83	271284 58 71180 71564 103 104 2 2671.2058411774 2685.7287666644 5356.9346078418 14348479.654029
84	271342 58 71180 71564 103 104 2 2708.7550921653 2708.7550921653 5417.5101843306 14674708.298663
85	271400 58 71180 71564 103 104 2 2382.8080479817 2382.8080479817 4765.6160959634 11355548.387053
86	271458 58 71180 71564 103 104 2 1.3513159115333 1.6768076097826 3.0281235213159 4.6377384529878
87	271516 58 71180 71564 103 104 2 7.5791183350264 8.1511722941186 15.730290629145 123.88464450474
88	271574 57 71180 71564 103 104 2 1.7944132734556 2.572334279283 4.3667475527385 9.8368226403277
89	271631 58 71180 71564 103 104 2 11.090509181943 16.744602877534 27.835112059477 403.38111944107
90	271689 58 71180 71564 103 104 2 13.021483181795 16.973260721355 29.99474390315 457.65060376885
91	271747 58 71180 71564 103 104 2 9.2381606844838 9.7885833410665 19.02674402555 181.15997665735
92	271805 58 71180 71564 103 104 2 4.9006074577985 9.0476207744745 13.948228232273 105.87539513413
93	271863 48 71180 71564 103 104 2 -4.5 -3.9517775395594 -8.4517775395594 35.866545722166
94	271911 38 71180 71564 103 104 2 0.973 0.973 1.946 1.893458
95	271949 61 71180 71564 103 104 2 -0.55042265658267 0.92134044514969 0.37091778856702 1.1518333167482
96	272010 48 71180 71564 103 104 2 0.973 3.8423308825608 4.8153308825608 15.71023561108
97	272058 59 71180 71564 103 104 2 -4.147013316676 -3.6958045280073 -7.8428178446833 30.856690557927
98	272117 38 71180 71564 103 104 2 0.973 0.973 1.946 1.893458
99	272155 58 71180 71564 103 104 2 24.989824921366 25.949232907438 50.939057828803 1297.8540380849
100	272213 32 71180 71564 103 104 2 0 0 0 0
101	272245 63 71180 71564 103 104 2 -0.15029537025839 0.95940798607189 0.8091126158135 0.94305238205963
102	272308 60 71180 71564 103 104 2 2.8520063895744 9.9758620296024 12.827868419177 107.65176367984
103	272368 32 71180 71564 103 104 2 0 0 0 0
104	272400 40 71180 71564 103 104 2 0.973 0.973 1.946 1.893458
2	272440 56 72526 73255 105 106 2 7349.1577095124 7364.4337424453 14713.591451958 108245003.38615
3	272496 56 72526 73255 105 106 2 4024.6031235001 4033.5469570349 8058.150080535 32466931.356292
4	272552 56 72526 73255 105 106 2 6646.2176177786 6656.4619687847 13302.679586563 88480694.564748
5	272608 55 72526 73255 105 106 2 2869.7316370247 2888.211039517 5757.9426765417 16577122.677328
7	272663 56 72526 73255 105 106 2 3408.1725030397 3408.1725030397 6816.3450060793 23231279.620951
8	272719 56 72526 73255 105 106 2 3428.8615852709 3428.8615852709 6857.7231705418 23514183.541893
9	272775 56 72526 73255 105 106 2 4863.5115007788 4884.1750130977 9747.6865138765 47508909.676775
10	272831 58 72526 73255 105 106 2 3006.7066194833 3012.7311470337 6019.4377665171 18116833.659952
13	272889 58 72526 73255 105 106 2 15.734204237881 17.684884172418 33.419088410299 560.3203111912
14	272947 58 72526 73255 105 106 2 18.975986954011 21.125257822267 40.101244776278 806.36459893603
15	273005 58 72526 73255 105 106 2 4527.1363289378 4527.1363289378 9054.2726578756 40989926.681576
16	273063 58 72526 73255 105 106 2 3095.1240667613 3095.1240667613 6190.2481335226 19159585.97729
17	273121 57 72526 73255 105 106 2 5293.6007933995 5300.896677015 10594.497470414 56121714.940268
18	273178 58 72526 73255 105 106 2 1608.0930924254 1618.5891058087 3226.6821982341 5205794.0873489
19	273236 57 72526 73255 105 106 2 1.6129066847032 1.950679934537 3.5635866192402 6.4066201805657
20	273293 58 72526 73255 105 106 2 8.3449065970379 10.787979164785 19.132885761823 186.01796057313
21	273351 58 72526 73255 105 106 2 1.9580538500799 2.1492708682556 4.1073247183355 8.4533401449449
22	273409 58 72526 73255 105 106 2 11.611226006294 13.942343599603 25.553569605898 329.20951441864
23	273467 30 72526 73255 105 106 2 0 0 0 0
24	273497 58 72526 73255 105 106 2 21.538468007042 24.029077833433 45.567545840475 1041.3021856155
25	273555 58 72526 73255 105 106 2 7838.6121063213 7841.5887821207 15680.200888442 122934354.38125
26	273613 56 72526 73255 105 106 2 3042.80524908 3047.2820017495 6090.0872508295 18544591.382015
27	273669 57 72526 73255 105 106 2 6228.3919421183 6230.233005205 12458.624947323 77608669.48379
28	273726 58 72526 73255 105 106 2 2879.4301843413 2879.7819086049 5759.2120929462 16584262.027624
29	273784 58 72526 73255 105 106 2 5830.2914677578 5830.2925260588 11660.583993817 67984609.538427
30	273842 58 72526 73255 105 106 2 2887.7400641359 2887.7400957372 5775.4801598731 16678085.538544
31	273900 30 72526 73255 105 106 2 0 0 0 0
32	273930 38 72526 73255 105 106 2 0.973 0.973 1.946 1.893458
33	273968 60 72526 73255 105 106 2 -2.4906098263906 0.47063768389635 -2.0199721424942 6.4246371368167
34	274028 48 72526 73255 105 106 2 0.973 6.2763221714923 7.2493221714923 40.338949000366
35	274076 30 72526 73255 105 106 2 0 0 0 0
36	274106 58 72526 73255 105 106 2 11.907684900532 12.782998231882 24.690683132413 305.19800348664
37	274164 58 72526 73255 105 106 2 3613.6992232371 3613.6992232371 7227.3984464742 26117644.152049
38	274222 58 72526 73255 105 106 2 1976.7467040819 1976.7467040819 3953.4934081637 7815055.0641971
39	274280 58 72526 73255 105 106 2 4438.2796935747 4449.9219615952 8888.2016551699 39500132.102685
40	274338 58 72526 73255 105 106 2 2897.5349639388 2919.8650849798 5817.4000489186 16921320.981732
41	274396 30 72526 73255 105 106 2 0 0 0 0
42	274426 38 72526 73255 105 106 2 0.973 0.973 1.946 1.893458
43	274464 61 72526 73255 105 106 2 -0.52677545926999 0.87531333134975 0.34853787207976 1.0436658125277
44	274525 48 72526 73255 105 106 2 0.973 4.6161934620186 5.5891934620186 22.255971078783
45	274573 58 72526 73255 105 106 2 5.1909538670114 5.4727970885016 10.663750955513 56.897510021352
46	274631 62 72526 73255 105 106 2 0.00074679012220595 1.8538865875573 1.8546333776796 3.4368960372205
47	274693 63 72526 73255 105 106 2 0.0010587589755789 0.014846764042778 0.015905523018357 0.00022154737311028
50	274756 58 72526 73255 105 106 2 3406.3707254944 3406.3707254944 6812.7414509889 23206723.039011
51	274814 58 72526 73255 105 106 2 3422.7221219982 3422.7221219982 6845.4442439965 23430053.448832
52	274872 60 72526 73255 105 106 2 -2.2928142139697 0.28184322149027 -2.0109709924794 5.3364326212815
53	274932 48 72526 73255 105 106 2 0.973 1.7608857949964 2.7338857949964 4.0474477830201
54	274980 61 72526 73255 105 106 2 -0.009748343702091 1.8531397974351 1.8433914537331 3.4342221390429
55	275041 58 72526 73255 105 106 2 1.1100342706835 2.0279782462843 3.1380125169678 5.3448718494941
56	275099 65 72526 73255 105 106 2 -0.013788005067199 -0.0039372692019301 -0.017725274269129 0.00020561117250157
57	275164 58 72526 73255 105 106 2 1.1100475563731 1.1107021203744 2.2207496767475 2.4658647776141
58	275222 30 72526 73255 105 106 2 0 0 0 0
59	275252 57 72526 73255 105 106 2 25.254622888395 25.50218834874 50.756811237135 1288.1575878097
60	275309 57 72526 73255 105 106 2 3461.723601836 3481.1907817656 6942.9143836015 24102219.554558
61	275366 58 72526 73255 105 106 2 3417.8507693998 3423.5516407269 6841.4024101267 23402409.71861
62	275424 58 72526 73255 105 106 2 5194.5317742933 5211.0002119095 10405.531986203 54137683.562663
63	275482 58 72526 73255 105 106 2 2947.0954042518 2962.0639919098 5909.1593961616 17459194.413931
64	275540 30 72526 73255 105 106 2 0 0 0 0
65	275570 38 72526 73255 105 106 2 0.973 0.973 1.946 1.893458
66	275608 62 72526 73255 105 106 2 -0.65340048780199 -0.24756546034478 -0.90096594814677 0.4882208546156
67	275670 60 72526 73255 105 106 2 -0.14342848669151 2.3094835199531 2.1660550332616 5.3542858597295
69	275730 30 72526 73255 105 106 2 0 0 0 0
70	275760 58 72526 73255 105 106 2 6061.6038327384 6067.2269020752 12128.830734814 73554283.306334
71	275818 58 72526 73255 105 106 2 2323.3010010013 2330.0189460522 4653.3199470535 10826715.830216
72	275876 58 72526 73255 105 106 2 5102.7116142628 5111.7402719214 10214.451886184 52167554.425915
73	275934 58 72526 73255 105 106 2 3042.7962381784 3045.2918902285 6088.088128407 18532411.643764
74	275992 58 72526 73255 105 106 2 6048.0034065333 6053.4175257248 12101.420932258 73222208.946191
75	276050 58 72526 73255 105 106 2 2332.3957791212 2335.9447565505 4668.3405356717 10896707.976118
78	276108 30 72526 73255 105 106 2 0 0 0 0
79	276138 38 72526 73255 105 106 2 0.973 0.973 1.946 1.893458
80	276176 58 72526 73255 105 106 2 18.249073959561 20.293126980984 38.542200940545 744.83970304786
81	276234 58 72526 73255 105 106 2 22.018659906568 22.577100694534 44.595760601102 994.54685985225
82	276292 57 72526 73255 105 106 2 6848.5400720588 6870.592637482 13719.132709541 94107544.308816
83	276349 58 72526 73255 105 106 2 2694.8509884753 2706.3624324371 5401.2134209124 14586619.465793
84	276407 58 72526 73255 105 106 2 2708.7550921653 2708.7550921653 5417.5101843306 14674708.298663
85	276465 58 72526 73255 105 106 2 2382.8080479817 2382.8080479817 4765.6160959634 11355548.387053
86	276523 58 72526 73255 105 106 2 2.0063925597584 2.0440530214226 4.050445581181 8.2037638582406
87	276581 58 72526 73255 105 106 2 11.375933071016 12.857679385721 24.233612456737 294.73177242223
88	276639 61 72526 73255 105 106 2 -0.55844078796545 0.63800805451895 0.0795672665535 0.71891039129452
89	276700 48 72526 73255 105 106 2 0.973 6.7336805613387 7.7066805613387 46.289182902151
90	276748 57 72526 73255 105 106 2 8.761072454962 9.2064410960125 17.967513550975 161.51494821544
91	276805 58 72526 73255 105 106 2 9.0209259445665 9.3667146867725 18.387640631339 169.11244892075
92	276863 58 72526 73255 105 106 2 6.5217134317134 6.5653569990054 13.087070430719 85.63665860978
93	276921 61 72526 73255 105 106 2 -3.8150420857826 -0.44536864105056 -4.2604107268332 14.752899342724
94	276982 38 72526 73255 105 106 2 0.973 0.973 1.946 1.893458
95	277020 61 72526 73255 105 106 2 -0.21723473991733 0.34578874220606 0.12855400228873 0.1667607864634
96	277081 48 72526 73255 105 106 2 0.973 2.4183425172006 3.3913425172006 6.7951095305003
97	277129 59 72526 73255 105 106 2 0.04364356729202 1.6211059739149 1.6647495412069 2.6298893396285
98	277188 58 72526 73255 105 106 2 1.5219104382415 3.9981777528289 5.5200881910704 18.301636725245
99	277246 58 72526 73255 105 106 2 24.851098606766 24.877735915531 49.728834522297 1236.4788462461
100	277304 32 72526 73255 105 106 2 0 0 0 0
101	277336 63 72526 73255 105 106 2 -1.0981343006715 0.026637308765203 -1.0714969919063 1.2066084885296
102	277399 50 72526 73255 105 106 2 0.973 3.8921528700653 4.8651528700653 16.095582963957
103	277449 32 72526 73255 105 106 2 0 0 0 0
104	277481 40 72526 73255 105 106 2 0.973 0.973 1.946 1.893458
2	277521 28 73907 73907 107 107 1 7332.0673065028 7332.0673065028 7332.0673065028 53759210.987087
3	277549 28 73907 73907 107 107 1 4043.5530705483 4043.5530705483 4043.5530705483 16350321.434341
4	277577 28 73907 73907 107 107 1 6638.2848725279 6638.2848725279 6638.2848725279 44066826.048832
5	277605 28 73907 73907 107 107 1 2855.1227839904 2855.1227839904 2855.1227839904 8151726.111661
7	277633 28 73907 73907 107 107 1 3408.1725030397 3408.1725030397 3408.1725030397 11615639.810476
8	277661 28 73907 73907 107 107 1 3428.8615852709 3428.8615852709 3428.8615852709 11757091.770947
9	277689 28 73907 73907 107 107 1 4900.9137380083 4900.9137380083 4900.9137380083 24018955.467398
10	277717 29 73907 73907 107 107 1 3001.8891846774 3001.8891846774 3001.8891846774 9011338.6770832
13	277746 29 73907 73907 107 107 1 19.785359131704 19.785359131704 19.785359131704 391.46043597051
14	277775 29 73907 73907 107 107 1 16.625257822267 16.625257822267 16.625257822267 276.39919765684
15	277804 29 73907 73907 107 107 1 4527.1363289378 4527.1363289378 4527.1363289378 20494963.340788
16	277833 29 73907 73907 107 107 1 3095.1240667613 3095.1240667613 3095.1240667613 9579792.9886449
17	277862 29 73907 73907 107 107 1 5307.9805594162 5307.9805594162 5307.9805594162 28174657.61914
18	277891 29 73907 73907 107 107 1 1597.9020684992 1597.9020684992 1597.9020684992 2553291.020514
19	277920 29 73907 73907 107 107 1 2.1004749592859 2.1004749592859 2.1004749592859 4.4119950545872
20	277949 29 73907 73907 107 107 1 12.795572260391 12.795572260391 12.795572260391 163.72666947089
21	277978 18 73907 73907 107 107 1 -4.5 -4.5 -4.5 20.25
22	277996 19 73907 73907 107 107 1 0.973 0.973 0.973 0.946729
23	278015 15 73907 73907 107 107 1 0 0 0 0
24	278030 29 73907 73907 107 107 1 17.415788963568 17.415788963568 17.415788963568 303.30970522354
25	278059 29 73907 73907 107 107 1 7839.2733732619 7839.2733732619 7839.2733732619 61454207.020733
26	278088 29 73907 73907 107 107 1 3052.4573496448 3052.4573496448 3052.4573496448 9317495.8714004
27	278117 29 73907 73907 107 107 1 6223.9273233724 6223.9273233724 6223.9273233724 38737271.326621
28	278146 29 73907 73907 107 107 1 2878.6458106888 2878.6458106888 2878.6458106888 8286601.703396
29	278175 29 73907 73907 107 107 1 5830.2907785789 5830.2907785789 5830.2907785789 33992290.562782
30	278204 29 73907 73907 107 107 1 2887.7401163164 2887.7401163164 2887.7401163164 8339042.9793829
31	278233 15 73907 73907 107 107 1 0 0 0 0
32	278248 19 73907 73907 107 107 1 0.973 0.973 0.973 0.946729
33	278267 30 73907 73907 107 107 1 -4.1226790434739 -4.1226790434739 -4.1226790434739 16.996482495499
34	278297 19 73907 73907 107 107 1 0.973 0.973 0.973 0.946729
35	278316 15 73907 73907 107 107 1 0 0 0 0
36	278331 29 73907 73907 107 107 1 12.411554375165 12.411554375165 12.411554375165 154.04668200767
37	278360 29 73907 73907 107 107 1 3613.6992232371 3613.6992232371 3613.6992232371 13058822.076025
38	278389 29 73907 73907 107 107 1 1976.7467040819 1976.7467040819 1976.7467040819 3907527.5320985
39	278418 29 73907 73907 107 107 1 4459.9820739419 4459.9820739419 4459.9820739419 19891440.099883
40	278447 28 73907 73907 107 107 1 2942.718976068 2942.718976068 2942.718976068 8659594.9721109
41	278475 15 73907 73907 107 107 1 0 0 0 0
42	278490 19 73907 73907 107 107 1 0.973 0.973 0.973 0.946729
43	278509 31 73907 73907 107 107 1 -0.37144385671709 -0.37144385671709 -0.37144385671709 0.13797053869286
44	278540 19 73907 73907 107 107 1 0.973 0.973 0.973 0.946729
45	278559 29 73907 73907 107 107 1 5.3989791503545 5.3989791503545 5.3989791503545 29.148975865963
46	278588 29 73907 73907 107 107 1 4.4299260815028 4.4299260815028 4.4299260815028 19.624245087579
47	278617 33 73907 73907 107 107 1 0.00068947721317139 0.00068947721317139 0.00068947721317139 4.7537882748259e-07
50	278650 29 73907 73907 107 107 1 3406.3707254944 3406.3707254944 3406.3707254944 11603361.519506
51	278679 29 73907 73907 107 107 1 3422.7221219982 3422.7221219982 3422.7221219982 11715026.724416
52	278708 32 73907 73907 107 107 1 -0.073817938147112 -0.073817938147112 -0.073817938147112 0.0054490879922909
53	278740 29 73907 73907 107 107 1 1.2889363502724 1.2889363502724 1.2889363502724 1.6613569150534
54	278769 29 73907 73907 107 107 1 2.5760394939454 2.5760394939454 2.5760394939454 6.6359794743666
55	278798 29 73907 73907 107 107 1 4.0819416500134 4.0819416500134 4.0819416500134 16.662247634114
56	278827 34 73907 73907 107 107 1 -0.00036928176240753 -0.00036928176240753 -0.00036928176240753 1.3636902004681e-07
57	278861 29 73907 73907 107 107 1 1.1100331990195 1.1100331990195 1.1100331990195 1.2321737029254
58	278890 15 73907 73907 107 107 1 0 0 0 0
59	278905 29 73907 73907 107 107 1 24.968769818305 24.968769818305 24.968769818305 623.43946623948
60	278934 29 73907 73907 107 107 1 3503.0096433159 3503.0096433159 3503.0096433159 12271076.561164
61	278963 29 73907 73907 107 107 1 3411.4575253389 3411.4575253389 3411.4575253389 11638042.447192
62	278992 29 73907 73907 107 107 1 5223.6465301833 5223.6465301833 5223.6465301833 27286483.072296
63	279021 28 73907 73907 107 107 1 2977.403575084 2977.403575084 2977.403575084 8864932.0489231
64	279049 15 73907 73907 107 107 1 0 0 0 0
65	279064 19 73907 73907 107 107 1 0.973 0.973 0.973 0.946729
66	279083 31 73907 73907 107 107 1 -0.28585307009052 -0.28585307009052 -0.28585307009052 0.081711977680179
67	279114 29 73907 73907 107 107 1 2.0323975367538 2.0323975367538 2.0323975367538 4.1306397474029
69	279143 15 73907 73907 107 107 1 0 0 0 0
70	279158 29 73907 73907 107 107 1 6058.8677291599 6058.8677291599 6058.8677291599 36709878.159456
71	279187 29 73907 73907 107 107 1 2333.2854735877 2333.2854735877 2333.2854735877 5444221.1012555
72	279216 27 73907 73907 107 107 1 5121.21712958 5121.21712958 5121.21712958 26226864.888304
73	279243 29 73907 73907 107 107 1 3040.1759088719 3040.1759088719 3040.1759088719 9242669.556885
74	279272 29 73907 73907 107 107 1 6041.6858088157 6041.6858088157 6041.6858088157 36501967.412446
75	279301 29 73907 73907 107 107 1 2327.0882881916 2327.0882881916 2327.0882881916 5415339.9010386
78	279330 15 73907 73907 107 107 1 0 0 0 0
79	279345 19 73907 73907 107 107 1 0.973 0.973 0.973 0.946729
80	279364 29 73907 73907 107 107 1 22.745624170918 22.745624170918 22.745624170918 517.36341892465
81	279393 29 73907 73907 107 107 1 19.880595442009 19.880595442009 19.880595442009 395.23807512884
82	279422 29 73907 73907 107 107 1 6825.6756095402 6825.6756095402 6825.6756095402 46589847.526671
83	279451 29 73907 73907 107 107 1 2718.2647984755 2718.2647984755 2718.2647984755 7388963.514631
84	279480 29 73907 73907 107 107 1 2708.7550921653 2708.7550921653 2708.7550921653 7337354.1493315
85	279509 29 73907 73907 107 107 1 2382.8080479817 2382.8080479817 2382.8080479817 5677774.1935263
86	279538 29 73907 73907 107 107 1 2.4524971899344 2.4524971899344 2.4524971899344 6.014742466636
87	279567 29 73907 73907 107 107 1 16.738183460526 16.738183460526 16.738183460526 280.16678555823
88	279596 30 73907 73907 107 107 1 -2.1380644645592 -2.1380644645592 -2.1380644645592 4.571319654611
89	279626 19 73907 73907 107 107 1 0.973 0.973 0.973 0.946729
90	279645 28 73907 73907 107 107 1 4.261072454962 4.261072454962 4.261072454962 18.156738466436
91	279673 29 73907 73907 107 107 1 9.8319064693877 9.8319064693877 9.8319064693877 96.666384822787
92	279702 29 73907 73907 107 107 1 8.2511981248373 8.2511981248373 8.2511981248373 68.082270495319
93	279731 18 73907 73907 107 107 1 -4.5 -4.5 -4.5 20.25
94	279749 19 73907 73907 107 107 1 0.973 0.973 0.973 0.946729
95	279768 30 73907 73907 107 107 1 0.46519178261515 0.46519178261515 0.46519178261515 0.21640339461266
96	279798 29 73907 73907 107 107 1 2.7743564532369 2.7743564532369 2.7743564532369 7.6970537296171
97	279827 29 73907 73907 107 107 1 1.6858411258319 1.6858411258319 1.6858411258319 2.8420603015463
98	279856 29 73907 73907 107 107 1 4.9122929869624 4.9122929869624 4.9122929869624 24.13062238976
99	279885 29 73907 73907 107 107 1 25.778277399096 25.778277399096 25.778277399096 664.51958566472
100	279914 16 73907 73907 107 107 1 0 0 0 0
101	279930 30 73907 73907 107 107 1 0.9005414835643 0.9005414835643 0.9005414835643 0.8109749636202
102	279960 30 73907 73907 107 107 1 9.5306824101565 9.5306824101565 9.5306824101565 90.833907203266
103	279990 16 73907 73907 107 107 1 0 0 0 0
104	280006 20 73907 73907 107 107 1 0.973 0.973 0.973 0.946729
2	280026 84 74574 76033 108 110 3 7271.3403174462 7313.4405729018 21877.953874555 159549175.20305
3	280110 84 74574 76033 108 110 3 4055.3059972848 4082.3866660463 12206.035632722 49662802.13932
4	280194 84 74574 76033 108 110 3 6626.9058467959 6632.3764899231 19887.897619979 131842839.57986
5	280278 84 74574 76033 108 110 3 2834.1608583353 2844.2419740797 8515.7182112709 24172538.737129
7	280362 84 74574 76033 108 110 3 3408.1725030397 3408.1725030397 10224.517509119 34846919.431427
8	280446 84 74574 76033 108 110 3 3428.8615852709 3428.8615852709 10286.584755813 35271275.31284
9	280530 83 74574 76033 108 110 3 4913.327406945 4925.6437383316 14760.387165184 72623088.085806
10	280613 86 74574 76033 108 110 3 2994.771846592 2998.3165086747 8989.0769467418 26934507.93958
13	280699 87 74574 76033 108 110 3 22.006975575463 25.934780460802 72.017397781706 1736.5563369839
14	280786 87 74574 76033 108 110 3 3.5882630976736 12.382646991895 23.853557081464 228.34170218286
15	280873 87 74574 76033 108 110 3 4527.1363289378 4527.1363289378 13581.408986813 61484890.022365
16	280960 87 74574 76033 108 110 3 3095.1240667613 3095.1240667613 9285.3722002838 28739378.965935
17	281047 84 74574 76033 108 110 3 5315.41645351 5329.744051615 15967.949538176 84991906.820339
18	281131 87 74574 76033 108 110 3 1566.5926456213 1587.2046330632 4730.3955619742 7459093.211404
19	281218 87 74574 76033 108 110 3 1.8591387153603 2.2216164437588 6.1494213290978 12.671356108946
20	281305 87 74574 76033 108 110 3 14.938947950095 15.592698532142 46.09509012815 708.52519148943
21	281392 78 74574 76033 108 110 3 -4.5 -4.2426108303713 -13.036994724593 56.691479688935
22	281470 57 74574 76033 108 110 3 0.973 0.973 2.919 2.840187
23	281527 45 74574 76033 108 110 3 0 0 0 0
24	281572 87 74574 76033 108 110 3 4.3987252470062 12.915788963568 25.730303174142 256.99189222939
25	281659 87 74574 76033 108 110 3 7842.0867384519 7851.1848145983 23539.26990681 184699117.57358
26	281746 87 74574 76033 108 110 3 3057.0242883559 3069.0242109764 9188.6173620175 28143635.145846
27	281833 87 74574 76033 108 110 3 6200.3475282799 6217.8105129269 18627.89244541 115666278.41685
28	281920 87 74574 76033 108 110 3 2878.2743679101 2878.7276620906 8635.4746611924 24857140.977974
29	282007 87 74574 76033 108 110 3 5830.2906108805 5830.2906108805 17490.871832642 101976865.82196
30	282094 87 74574 76033 108 110 3 2887.7401213239 2887.7401213239 8663.2203639718 25017129.024912
31	282181 45 74574 76033 108 110 3 0 0 0 0
32	282226 57 74574 76033 108 110 3 0.973 0.973 2.919 2.840187
33	282283 66 74574 76033 108 110 3 -4.5 -4.0170637165618 -13.017063716562 56.636800902918
34	282349 57 74574 76033 108 110 3 0.973 0.973 2.919 2.840187
35	282406 45 74574 76033 108 110 3 0 0 0 0
36	282451 87 74574 76033 108 110 3 12.185774155626 13.028308298545 38.131458361603 485.08850922777
37	282538 87 74574 76033 108 110 3 3613.6992232371 3613.6992232371 10841.097669711 39176466.228074
38	282625 87 74574 76033 108 110 3 1976.7467040819 1976.7467040819 5930.2401122456 11722582.596296
39	282712 87 74574 76033 108 110 3 4470.4622210961 4491.1109130952 13442.568177279 60234426.280146
40	282799 87 74574 76033 108 110 3 2966.5270741686 3013.4197487734 8970.4016583868 26823801.586908
41	282886 45 74574 76033 108 110 3 0 0 0 0
42	282931 57 74574 76033 108 110 3 0.973 0.973 2.919 2.840187
43	282988 91 74574 76033 108 110 3 -0.73160175180528 0.61675392338075 -0.22578021953814 0.92793252064828
44	283079 77 74574 76033 108 110 3 0.973 3.8792684531892 6.4391715693083 18.513714231857
45	283156 87 74574 76033 108 110 3 5.3781955546137 8.3013924956691 20.465101403993 143.8812962642
46	283243 87 74574 76033 108 110 3 5.9961677325545 9.3897740013087 23.373958038156 187.93028775023
47	283330 63 74574 76033 108 110 3 0 0.00016777091963824 0.00016777091963824 2.8147081476261e-08
50	283393 87 74574 76033 108 110 3 3406.3707254944 3406.3707254944 10219.112176483 34810084.558517
51	283480 87 74574 76033 108 110 3 3422.7221219982 3422.7221219982 10268.166365995 35145080.173249
52	283567 90 74574 76033 108 110 3 -0.020783595740795 1.5158791419584 2.9024133453146 4.2788649185316
53	283657 87 74574 76033 108 110 3 1.3568764473255 4.5960285703065 9.7204988757774 37.159355792315
54	283744 86 74574 76033 108 110 3 1.401757697016 1.9918485717382 4.9598479198059 8.3854982833683
55	283830 87 74574 76033 108 110 3 3.6825096432018 5.3769591064413 13.870997030383 65.623370900976
56	283917 83 74574 76033 108 110 3 -0.00052170629353315 0 -0.00068947721317139 3.0032453818836e-07
57	284000 67 74574 76033 108 110 3 0.973 1.1100080721751 3.0560080721751 3.1255759202939
58	284067 45 74574 76033 108 110 3 0 0 0 0
59	284112 87 74574 76033 108 110 3 25.087252350005 26.142014997329 77.240545645126 1989.3617772786
60	284199 87 74574 76033 108 110 3 3527.0493612517 3577.8541188763 10657.11590987 37859330.438681
61	284286 86 74574 76033 108 110 3 3385.584405574 3404.4080516314 10186.475953343 34588276.088812
62	284372 86 74574 76033 108 110 3 5233.4303369998 5248.799470168 15722.624820566 82400428.866715
63	284458 87 74574 76033 108 110 3 2989.2710226029 3003.8510590233 8990.7494493448 26944632.267064
64	284545 45 74574 76033 108 110 3 0 0 0 0
65	284590 57 74574 76033 108 110 3 0.973 0.973 2.919 2.840187
66	284647 89 74574 76033 108 110 3 -1.0547626473242 1.0425084794872 0.11848253170028 2.216440256599
67	284736 77 74574 76033 108 110 3 0.973 10.525740845471 16.343904845042 135.21356352875
69	284813 45 74574 76033 108 110 3 0 0 0 0
70	284858 87 74574 76033 108 110 3 6043.6544034953 6054.7972535905 18148.293417898 109786913.66184
71	284945 86 74574 76033 108 110 3 2338.1173805632 2351.283646692 7033.3967211039 16489643.485274
72	285031 87 74574 76033 108 110 3 5130.6913008522 5148.9055031415 15419.549354797 79254333.329433
73	285118 87 74574 76033 108 110 3 3032.5920870027 3037.5694655333 9105.1936164457 27634862.653052
74	285205 87 74574 76033 108 110 3 6014.4808483133 6034.2429520924 18073.881550818 108888593.79696
75	285292 87 74574 76033 108 110 3 2304.2330689196 2320.8354534409 6938.2713870126 16046674.730886
78	285379 45 74574 76033 108 110 3 0 0 0 0
79	285424 57 74574 76033 108 110 3 0.973 0.973 2.919 2.840187
80	285481 86 74574 76033 108 110 3 25.062355635222 27.873424559106 79.353422145658 2102.9412729072
81	285567 87 74574 76033 108 110 3 10.624075563726 15.380595442009 36.885266447744 467.82105490719
82	285654 87 74574 76033 108 110 3 6757.3805719985 6803.3200927754 20341.010175539 137919953.54135
83	285741 87 74574 76033 108 110 3 2729.9022267901 2753.8101666305 8225.5870244568 22553713.093991
84	285828 87 74574 76033 108 110 3 2708.7550921653 2708.7550921653 8126.2652764959 22012062.447995
85	285915 87 74574 76033 108 110 3 2382.8080479817 2382.8080479817 7148.424143945 17033322.580579
86	286002 85 74574 76033 108 110 3 1.355286316108 2.316731464304 5.1278003881882 9.3233486774296
87	286087 87 74574 76033 108 110 3 12.716180609266 17.766377878599 44.716908955855 679.96216545821
88	286174 67 74574 76033 108 110 3 -4.5 -0.25651987828314 -9.2565198782831 40.565802447954
89	286241 57 74574 76033 108 110 3 0.973 0.973 2.919 2.840187
90	286298 87 74574 76033 108 110 3 6.3166227954086 9.5594410279878 23.562678564257 190.36668248147
91	286385 87 74574 76033 108 110 3 9.2807228414926 9.8284408793903 28.716181189113 275.02485121516
92	286472 87 74574 76033 108 110 3 9.7208603942285 13.944736356636 35.5314676749 429.74969164605
93	286559 87 74574 76033 108 110 3 1.3699919454521 2.0555503404466 5.2983685730258 9.6096434344681
94	286646 87 74574 76033 108 110 3 4.0606314136115 5.9665113730964 14.594315867508 72.947055392483
95	286733 95 74574 76033 108 110 3 -0.32629462673794 -0.0034655899973597 -0.55118362789508 0.15550852076172
96	286828 67 74574 76033 108 110 3 0.973 1.6636206535846 3.6096206535846 4.6610916790331
97	286895 87 74574 76033 108 110 3 1.4696622693911 2.1450105298078 5.6935382317984 11.082658845915
98	286982 87 74574 76033 108 110 3 5.1068091379125 9.0195962299583 22.097185270179 170.96594797358
99	287069 87 74574 76033 108 110 3 25.204472315598 25.938379636321 76.995684672937 1976.4339225666
100	287156 48 74574 76033 108 110 3 0 0 0 0
101	287204 96 74574 76033 108 110 3 -0.57380508349743 0.73390732072293 0.074555321922524 0.87519050397606
102	287300 91 74574 76033 108 110 3 0.31953943913236 8.5611661141465 12.301079350605 85.094627600608
103	287391 48 74574 76033 108 110 3 0 0 0 0
104	287439 60 74574 76033 108 110 3 0.973 0.973 2.919 2.840187
2	287499 55 76729 77456 111 112 2 7225.193703756 7248.4441518551 14473.637855611 104743366.67936
3	287554 56 76729 77456 111 112 2 4097.8905849275 4113.9229547564 8211.8135396839 33717069.323709
4	287610 56 76729 77456 111 112 2 6626.4238489232 6626.5121580801 13252.936007003 87820156.406762
5	287666 56 76729 77456 111 112 2 2833.2657194289 2833.4297221487 5666.6954415776 16055718.627247
7	287722 56 76729 77456 111 112 2 3408.1725030397 3408.1725030397 6816.3450060793 23231279.620951
8	287778 56 76729 77456 111 112 2 3428.8615852709 3428.8615852709 6857.7231705418 23514183.541893
9	287834 56 76729 77456 111 112 2 4926.0165301659 4926.0776872274 9852.0942173933 48531880.236067
10	287890 58 76729 77456 111 112 2 2994.6469553278 2994.6645564389 5989.3115117667 17935926.192646
13	287948 58 76729 77456 111 112 2 27.607411912429 28.222825738567 55.830237650996 1558.697085172
14	288006 60 76729 77456 111 112 2 0.18628458989259 0.83047040193514 1.0167549918277 0.72438303692176
15	288066 58 76729 77456 111 112 2 4527.1363289378 4527.1363289378 9054.2726578756 40989926.681576
16	288124 58 76729 77456 111 112 2 3095.1240667613 3095.1240667613 6190.2481335226 19159585.97729
17	288182 58 76729 77456 111 112 2 5335.2772604505 5338.2420987305 10673.519359181 56962012.150539
18	288240 58 76729 77456 111 112 2 1554.3671742517 1558.6324536759 3112.9996279277 4845392.4380432
19	288298 59 76729 77456 111 112 2 0.61541382613765 1.6726314516272 2.2880452777649 3.176430150374
20	288357 58 76729 77456 111 112 2 8.7340319238179 15.514236631523 24.248268555341 316.97485190516
21	288415 61 76729 77456 111 112 2 -2.7577926957384 -0.64418581204254 -3.401978507781 8.0203959131052
22	288476 38 76729 77456 111 112 2 0.973 0.973 1.946 1.893458
23	288514 30 76729 77456 111 112 2 0 0 0 0
24	288544 61 76729 77456 111 112 2 0.063630801112911 0.38787087720513 0.45150167831804 0.15449269623414
25	288605 58 76729 77456 111 112 2 7858.2932371094 7866.9736491405 15725.26688625 123642046.99667
26	288663 57 76729 77456 111 112 2 3076.5566060152 3084.695725568 6161.2523315832 18980548.269353
27	288720 58 76729 77456 111 112 2 6175.4042577054 6188.9844664887 12364.388724194 76439146.472525
28	288778 58 76729 77456 111 112 2 2879.0363837447 2879.4053427978 5758.4417265424 16579825.627058
29	288836 58 76729 77456 111 112 2 5830.2906108805 5830.2906108805 11660.581221761 67984577.214643
30	288894 58 76729 77456 111 112 2 2887.7401213239 2887.7401213239 5775.4802426478 16678086.016608
31	288952 30 76729 77456 111 112 2 0 0 0 0
32	288982 38 76729 77456 111 112 2 0.973 0.973 1.946 1.893458
33	289020 61 76729 77456 111 112 2 -4.0108543698011 -0.32424007609221 -4.3350944458933 16.192084402697
34	289081 38 76729 77456 111 112 2 0.973 0.973 1.946 1.893458
35	289119 30 76729 77456 111 112 2 0 0 0 0
36	289149 58 76729 77456 111 112 2 5.1946446090156 9.6946446090156 14.889289218031 120.97046670909
37	289207 58 76729 77456 111 112 2 3613.6992232371 3613.6992232371 7227.3984464742 26117644.152049
38	289265 58 76729 77456 111 112 2 1976.7467040819 1976.7467040819 3953.4934081637 7815055.0641971
39	289323 58 76729 77456 111 112 2 4501.1385665858 4509.3508304173 9010.489397003 40594493.307391
40	289381 56 76729 77456 111 112 2 3036.154621235 3054.768612069 6090.9232333039 18549846.157328
41	289437 30 76729 77456 111 112 2 0 0 0 0
42	289467 38 76729 77456 111 112 2 0.973 0.973 1.946 1.893458
43	289505 48 76729 77456 111 112 2 -4.5 -2.4911295466108 -6.9911295466108 26.455726417997
44	289553 38 76729 77456 111 112 2 0.973 0.973 1.946 1.893458
45	289591 57 76729 77456 111 112 2 10.35697838556 11.914407125432 22.271385510992 249.22009842949
46	289648 58 76729 77456 111 112 2 11.366569991794 13.584401499865 24.950971491659 313.73487748788
47	289706 30 76729 77456 111 112 2 0 0 0 0
50	289736 58 76729 77456 111 112 2 3406.3707254944 3406.3707254944 6812.7414509889 23206723.039011
51	289794 58 76729 77456 111 112 2 3422.7221219982 3422.7221219982 6845.4442439965 23430053.448832
52	289852 58 76729 77456 111 112 2 1.5574287398718 2.0555858898908 3.6130146297626 6.6510176304969
53	289910 57 76729 77456 111 112 2 6.312947656065 6.8430577940042 13.156005450069 86.680748080297
54	289967 58 76729 77456 111 112 2 1.9767959904857 2.2178315080702 4.1946274985559 8.8264989861894
55	290025 58 76729 77456 111 112 2 7.2091091877707 9.2577150796928 16.466824267464 137.67654377797
56	290083 30 76729 77456 111 112 2 0 0 0 0
57	290113 38 76729 77456 111 112 2 0.973 0.973 1.946 1.893458
58	290151 30 76729 77456 111 112 2 0 0 0 0
59	290181 58 76729 77456 111 112 2 20.345598560218 24.845598560218 45.191197120436 1031.247148589
60	290239 58 76729 77456 111 112 2 3603.8914714469 3631.2697966257 7235.1612680725 26174154.073853
61	290297 58 76729 77456 111 112 2 3367.9829131512 3376.3614168238 6744.3443299749 22743125.320294
62	290355 58 76729 77456 111 112 2 5258.5745269141 5269.9983434555 10528.57287037 55425488.595134
63	290413 58 76729 77456 111 112 2 3000.4433477278 3003.1463293813 6003.5896771091 18021548.1586
64	290471 30 76729 77456 111 112 2 0 0 0 0
65	290501 38 76729 77456 111 112 2 0.973 0.973 1.946 1.893458
66	290539 49 76729 77456 111 112 2 -4.5 -0.24165378978701 -4.741653789787 20.308396554118
67	290588 48 76729 77456 111 112 2 0.973 2.2784206060095 3.2514206060095 6.1379294578889
69	290636 30 76729 77456 111 112 2 0 0 0 0
70	290666 57 76729 77456 111 112 2 6027.3029120487 6036.174202299 12063.477114348 72763779.39409
71	290723 58 76729 77456 111 112 2 2360.0862992712 2370.5259764873 4730.6122757585 11189400.745209
72	290781 58 76729 77456 111 112 2 5158.4140735878 5167.1623301734 10325.576403761 53308802.300952
73	290839 58 76729 77456 111 112 2 3027.6293322614 3030.0073715435 6057.6367038049 18347484.045177
74	290897 58 76729 77456 111 112 2 5988.6122298471 6002.1188922907 11990.731122138 71888907.636668
75	290955 56 76729 77456 111 112 2 2282.506139725 2293.849288275 4576.3554280001 10471578.835202
78	291011 30 76729 77456 111 112 2 0 0 0 0
79	291041 38 76729 77456 111 112 2 0.973 0.973 1.946 1.893458
80	291079 58 76729 77456 111 112 2 27.600950060991 28.632606376867 56.233556437858 1581.6385922019
81	291137 58 76729 77456 111 112 2 10.003741969107 11.757282191593 21.7610241607 238.30853791722
82	291195 58 76729 77456 111 112 2 6712.8718791309 6735.2878372462 13448.159716377 90426751.116183
83	291253 58 76729 77456 111 112 2 2765.3149025696 2777.0185065341 5542.3334091037 15358798.296006
84	291311 58 76729 77456 111 112 2 2708.7550921653 2708.7550921653 5417.5101843306 14674708.298663
85	291369 58 76729 77456 111 112 2 2382.8080479817 2382.8080479817 4765.6160959634 11355548.387053
86	291427 60 76729 77456 111 112 2 -0.27247449811548 1.0316563158762 0.75918181776069 1.1385571062105
87	291487 58 76729 77456 111 112 2 2.5714434313973 11.778617752865 14.350061184262 145.34815748898
88	291545 59 76729 77456 111 112 2 -0.6203335946193 1.7535402224865 1.1332066278672 3.4597170804912
89	291604 48 76729 77456 111 112 2 0.973 6.7959752952599 7.7689752952599 47.132009213783
90	291652 58 76729 77456 111 112 2 11.550914640247 13.699032116832 25.249946757079 321.08710996427
91	291710 58 76729 77456 111 112 2 9.0654536169606 9.8533351760476 18.918788793008 179.2706633728
92	291768 58 76729 77456 111 112 2 16.144466712417 17.638040313286 33.782507025703 571.74427152145
93	291826 58 76729 77456 111 112 2 1.9914736122591 2.1481174765853 4.1395910888445 8.5803758415358
94	291884 57 76729 77456 111 112 2 7.353392564756 9.1002680807988 16.453660645555 136.88726135381
95	291941 61 76729 77456 111 112 2 -0.78788155908696 0.57261233455501 -0.21526922453195 0.94864223683385
96	292002 48 76729 77456 111 112 2 0.973 3.0334545147251 4.0064545147251 10.148575292906
97	292050 58 76729 77456 111 112 2 1.4935736008687 2.1997303557815 3.6933039566502 7.0695757393585
98	292108 58 76729 77456 111 112 2 8.8165951350621 10.836282381173 19.652877516235 195.15736562012
99	292166 58 76729 77456 111 112 2 24.911158232026 25.280434043317 50.191592275343 1259.6661498795
100	292224 32 76729 77456 111 112 2 0 0 0 0
101	292256 62 76729 77456 111 112 2 -0.94167448899243 0.3692758112913 -0.57239867770113 1.023115468024
102	292318 50 76729 77456 111 112 2 0.973 6.0719132642478 7.0449132642478 37.814859688549
103	292368 32 76729 77456 111 112 2 0 0 0 0
104	292400 40 76729 77456 111 112 2 0.973 0.973 1.946 1.893458
2	292440 56 78119 78870 113 114 2 7177.8924595663 7201.6355490402 14379.528008607 103385694.7423
3	292496 56 78119 78870 113 114 2 4130.1668682177 4146.5382986364 8276.7051668541 34252058.221382
4	292552 56 78119 78870 113 114 2 6626.3982542584 6626.4032187078 13252.801472966 87818373.44094
5	292608 56 78119 78870 113 114 2 2833.2181864798 2833.2274061717 5666.4455926515 16054302.827283
7	292664 56 78119 78870 113 114 2 3408.1725030397 3408.1725030397 6816.3450060793 23231279.620951
8	292720 56 78119 78870 113 114 2 3428.8615852709 3428.8615852709 6857.7231705418 23514183.541893
9	292776 56 78119 78870 113 114 2 4926.0778285418 4926.0778285418 9852.1556570835 48532485.545701
10	292832 58 78119 78870 113 114 2 2994.6469146573 2994.6469146573 5989.2938293146 17935820.286933
13	292890 58 78119 78870 113 114 2 28.614376793907 28.839003591694 57.453380385601 1650.4706874654
14	292948 62 78119 78870 113 114 2 0.010472305111937 0.043518603847905 0.053990908959842 0.0020035380552284
15	293010 58 78119 78870 113 114 2 4527.1363289378 4527.1363289378 9054.2726578756 40989926.681576
16	293068 58 78119 78870 113 114 2 3095.1240667613 3095.1240667613 6190.2481335226 19159585.97729
17	293126 58 78119 78870 113 114 2 5342.9555659774 5348.5568290418 10691.512395019 57154234.333498
18	293184 58 78119 78870 113 114 2 1550.5233388017 1552.5261684142 3103.0495072159 4814460.1277796
19	293242 59 78119 78870 113 114 2 0.22462679778691 0.3915510553401 0.61617785312701 0.20376942722195
20	293301 58 78119 78870 113 114 2 6.2781073676164 7.3548593962338 13.63296676385 93.508588857688
21	293359 63 78119 78870 113 114 2 -0.14276598604469 -0.033046298735968 -0.17581228478066 0.021474184631459
22	293422 48 78119 78870 113 114 2 0.973 1.1104217810122 2.0834217810122 2.1797655317463
23	293470 30 78119 78870 113 114 2 0 0 0 0
24	293500 48 78119 78870 113 114 2 0 0.00014703040560221 0.00014703040560221 2.1617940171549e-08
25	293548 58 78119 78870 113 114 2 7877.6352798307 7890.0891303023 15767.724410133 124310644.08615
26	293606 58 78119 78870 113 114 2 3093.8959927106 3104.6428244684 6198.538817179 19210999.481234
[...]
67	738726 210 181098 182866 313 320 8 0.973 4.7524211159173 19.633991802883 67.716947871773
69	738936 238 181098 182866 313 320 8 12.448568592949 13.54715476102 104.47517304892 1365.6712068555
70	739174 239 181098 182866 313 320 8 3590.1506213318 3597.161956242 28749.194921373 103314579.3705
71	739413 238 181098 182866 313 320 8 2591.9014132395 2685.2652692678 21100.480596692 55661535.216609
74	739651 238 181098 182866 313 320 8 4333.8433350068 4431.4522235875 35060.978454215 153667217.20638
75	739889 239 181098 182866 313 320 8 1487.1542345977 1520.9452123806 12032.46833406 18098518.425405
78	740128 255 181098 182866 313 320 8 -0.71784383209888 0.59867519875988 0.10399456457235 1.2872981356343
79	740383 229 181098 182866 313 320 8 0.973 3.9477847434257 17.317020667742 46.192637864342
80	740612 238 181098 182866 313 320 8 7.2975733895838 19.722455959854 104.83347854492 1483.267179973
81	740850 240 181098 182866 313 320 8 9.4921312826251 13.970522316177 90.719696927868 1039.6287180363
84	741090 240 181098 182866 313 320 8 4064.9550673365 4125.3594600089 32834.158616131 134763533.08221
85	741330 240 181098 182866 313 320 8 4677.5618859407 4815.8010564576 37961.580678391 180152051.50407
86	741570 232 181098 182866 313 320 8 -4.5 2.5996544840047 -8.2784439475951 91.039110116437
87	741802 199 181098 182866 313 320 8 0.973 12.235259448615 38.093121015017 314.37286392328
88	742001 249 181098 182866 313 320 8 -4.4783910335524 2.4577193551231 -1.1578304620357 27.242868958899
89	742250 220 181098 182866 313 320 8 0.973 10.310712986942 24.983949147792 144.43083288476
90	742470 240 181098 182866 313 320 8 10.997013563792 14.576887461025 108.68493262545 1485.2289700968
92	742710 236 181098 182866 313 320 8 14.300778350192 15.38387654508 117.60667516658 1730.1541835111
93	742946 254 181098 182866 313 320 8 -2.6988414070615 0.78106749833096 -3.0843626187694 8.9259165349737
94	743200 200 181098 182866 313 320 8 0.973 4.7275853879133 16.124245977772 46.536097464695
97	743400 252 181098 182866 313 320 8 -1.0830981948879 0.98227801870089 -0.46033953365404 3.9759634951889
98	743652 200 181098 182866 313 320 8 0.973 5.8302613948743 20.602259236324 81.91138092819
100	743852 247 181098 182866 313 320 8 16.05299385481 25.735027676445 170.71842436711 3737.1423155444
103	744099 250 181098 182866 313 320 8 0.47984547058586 2.5457124247449 12.227746246379 21.551828383602
104	744349 248 181098 182866 313 320 8 6.9020416312678 15.284521742659 85.267375018353 961.02404953077
7	744597 116 183184 183907 321 324 4 2628.1891373942 2655.4398095127 10567.058610741 27916091.379953
8	744713 116 183184 183907 321 324 4 5544.5000635564 5574.3860427312 22237.990767542 123632550.8273
9	744829 116 183184 183907 321 324 4 6845.6397775464 6887.0984020376 27465.689420574 188591974.59972
10	744945 120 183184 183907 321 324 4 3182.8311479484 3240.9920154606 12848.098773516 41270282.417033
15	745065 119 183184 183907 321 324 4 4059.4429906159 4103.0675972832 16329.142117706 66661297.983512
16	745184 120 183184 183907 321 324 4 4763.7930138828 4822.3792172577 19172.65739827 91899599.173702
23	745304 118 183184 183907 321 324 4 12.9640491561 13.887996334183 53.939167202226 727.80383119086
24	745422 119 183184 183907 321 324 4 23.313696431353 24.43244411364 95.849400599214 2297.555316581
25	745541 120 183184 183907 321 324 4 6604.1196127025 6629.1218065128 26465.926319155 175111658.40627
26	745661 120 183184 183907 321 324 4 4141.6569855611 4157.3250201457 16598.300777179 68876032.415084
31	745781 125 183184 183907 321 324 4 -0.92394717808347 0.6281798208598 -0.087122893845663 1.436843887715
32	745906 110 183184 183907 321 324 4 0.973 4.0554117402975 9.7596532093722 30.496464148359
33	746016 126 183184 183907 321 324 4 -0.98363259814214 0.49223459337372 -0.42914936835878 1.2670365071965
34	746142 110 183184 183907 321 324 4 0.973 6.3287769823128 14.915861780502 71.951563063404
35	746252 120 183184 183907 321 324 4 21.766711338001 25.286317495403 95.111560985266 2269.0828699286
37	746372 120 183184 183907 321 324 4 5933.0036674064 6007.3219919367 23877.21848724 142533462.16416
38	746492 119 183184 183907 321 324 4 2946.9900067802 2949.6123807769 11793.32590497 34770637.799462
39	746611 120 183184 183907 321 324 4 3291.9957193816 3329.0857289299 13242.014407381 43838504.47301
40	746731 119 183184 183907 321 324 4 4527.168773674 4531.3106784306 18116.750794257 82054174.459066
41	746850 121 183184 183907 321 324 4 0.52083179100882 1.5263351094676 4.8586008003076 6.5619486399842
42	746971 120 183184 183907 321 324 4 6.9973455128586 12.496093847432 41.599636346261 451.13644633635
45	747091 120 183184 183907 321 324 4 9.3451806189624 10.373949764193 38.851526801364 378.0250435389
50	747211 118 183184 183907 321 324 4 2097.7381513551 2135.74858695 8467.6822723547 17926209.483588
51	747329 120 183184 183907 321 324 4 4952.7393750524 4956.6962154997 19818.941627804 98197620.465928
52	747449 125 183184 183907 321 324 4 -0.96509302470368 1.0287691452308 0.23755445852876 2.1086217884796
53	747574 110 183184 183907 321 324 4 0.973 4.2856223719947 8.9791192979045 26.820048623118
58	747684 120 183184 183907 321 324 4 20.998030205211 26.504782973882 95.365447540418 2290.3215008623
59	747804 120 183184 183907 321 324 4 11.901729355388 12.750762110072 49.225623943177 606.16029038061
60	747924 120 183184 183907 321 324 4 6179.6265742801 6220.9123024096 24799.141718316 153750306.07094
61	748044 120 183184 183907 321 324 4 2322.6239607062 2370.7148994792 9388.9328760365 22039302.202508
62	748164 120 183184 183907 321 324 4 7247.6607132791 7249.5597931611 28996.165144892 210194400.8278
63	748284 120 183184 183907 321 324 4 2632.6447647044 2633.8304467773 10534.026877112 27741431.556071
64	748404 119 183184 183907 321 324 4 1.7118324988754 2.1866333196405 7.6933860883117 14.973132488905
65	748523 120 183184 183907 321 324 4 14.010557026115 15.043249549727 57.972614550178 841.08934852679
66	748643 126 183184 183907 321 324 4 -0.96173004619777 0.44718453916721 -0.63924081842415 1.5636287678748
67	748769 99 183184 183907 321 324 4 0.973 3.2105360959641 8.3079912143271 22.132669386545
69	748868 120 183184 183907 321 324 4 12.411238820509 13.420034104244 51.635769094625 667.32584591435
70	748988 120 183184 183907 321 324 4 3590.4707896886 3602.0889898982 14379.547434848 51692931.835664
71	749108 120 183184 183907 321 324 4 2575.3305625484 2584.4134245688 10313.116596749 26590148.48548
74	749228 120 183184 183907 321 324 4 4277.4939385483 4320.4625660418 17195.863907594 73925460.2018
75	749348 119 183184 183907 321 324 4 1525.5774674281 1540.4526694523 6132.0772721166 9400715.917894
78	749467 126 183184 183907 321 324 4 -0.87392518108245 0.84714842620306 0.20591311987955 1.6346959597324
79	749593 110 183184 183907 321 324 4 0.973 4.6717540538133 10.296099165551 35.013363503053
80	749703 118 183184 183907 321 324 4 18.14710131812 22.574163946701 81.52698494538 1672.74611987
81	749821 123 183184 183907 321 324 4 0.050856523206603 4.9921312826251 7.2317529759035 29.278621539072
84	749944 119 183184 183907 321 324 4 4002.3965295712 4048.6407377368 16099.731242471 64801532.972915
85	750063 119 183184 183907 321 324 4 4835.2707207768 4898.1152488282 19464.819748845 94721992.488833
86	750182 120 183184 183907 321 324 4 1.3704993851716 2.2131482610013 6.6402108895825 11.458337159015
87	750302 120 183184 183907 321 324 4 9.6247324512054 12.216582995121 43.756890950202 482.14188491415
88	750422 114 183184 183907 321 324 4 -4.5 -0.053749843359837 -9.4412747594185 32.62782083557
89	750536 90 183184 183907 321 324 4 0.973 1.1117945500629 4.0307945500629 4.0762741215495
90	750626 119 183184 183907 321 324 4 5.6548244808662 7.5005828324022 25.944940692938 170.03586749286
92	750745 120 183184 183907 321 324 4 14.159747892297 15.200613016407 59.629850109708 889.67943461873
93	750865 125 183184 183907 321 324 4 -3.4964307313901 0.65626807052177 -4.6859210124044 14.378833804113
94	750990 90 183184 183907 321 324 4 0.973 2.4358346106649 5.3548346106649 8.7734772505128
97	751080 127 183184 183907 321 324 4 -0.14103045789525 1.0009767575422 0.80798620097339 1.0318712815486
98	751207 120 183184 183907 321 324 4 1.5740642548255 5.8205654058775 11.531505487308 45.033993422325
100	751327 124 183184 183907 321 324 4 25.401495734482 26.214421257839 103.62778839386 2685.0680073386
103	751451 129 183184 183907 321 324 4 -0.33353194196243 0.50759844330605 0.47939358139411 0.41887724859676
104	751580 124 183184 183907 321 324 4 1.8076515638783 7.1360259056698 18.918341416675 104.05578459655
94	751704 120 184263 184973 325 328 4 4.5279183757301 8.4670904790696 25.406515265316 174.31503858826
93	751824 119 184263 184973 325 328 4 1.3046331042191 2.183990733372 7.1040500780335 13.086520476527
90	751943 120 184263 184973 325 328 4 7.9200797719277 13.415142629421 41.968638887015 457.94756105861
71	752063 118 184263 184973 325 328 4 2575.459908968 2575.9578662159 10302.774265693 26536789.531296
70	752181 120 184263 184973 325 328 4 3610.0090696701 3644.0576287852 14503.942967157 52591739.520012
7	752301 173 184263 185371 325 330 6 2570.8622456699 2618.9161076587 15569.354753691 40402392.042349
8	752474 173 184263 185371 325 330 6 5584.4938109058 5632.3892701791 33652.227528718 188746998.06023
9	752647 174 184263 185371 325 330 6 6900.6684337968 6968.3390004284 41608.168318795 288543172.68175
10	752821 180 184263 185371 325 330 6 3259.8883515988 3357.1873127683 19849.023667165 65670624.591283
15	753001 180 184263 185371 325 330 6 3977.1737217134 4043.0730741408 24048.968854146 96395162.114852
16	753181 178 184263 185371 325 330 6 4841.9152194424 4946.3698798076 29358.087324726 143657199.46178
23	753359 180 184263 185371 325 330 6 13.006853681264 13.981018507686 81.578437539866 1110.2072347562
24	753539 179 184263 185371 325 330 6 23.265199904105 24.461368453394 141.7996248435 3352.3648919632
25	753718 178 184263 185371 325 330 6 6553.0976771027 6595.5589981666 39447.402277545 259350844.39591
26	753896 180 184263 185371 325 330 6 4162.6973678466 4189.3446347734 25055.227175856 104627895.07875
31	754076 190 184263 185371 325 330 6 -0.89675898293499 0.89916569625493 0.31379040055908 1.7009905481077
32	754266 169 184263 185371 325 330 6 0.973 5.042662859265 15.083797418382 47.722194814555
33	754435 189 184263 185371 325 330 6 -0.54073112062179 1.1504640380153 -0.28293996916618 2.0591553034808
34	754624 183 184263 185371 325 330 6 0.36378436063395 10.424339350913 19.459009322601 135.06234296107
35	754807 180 184263 185371 325 330 6 24.458128658432 25.488044787414 149.48870364708 3725.2425609924
37	754987 180 184263 185371 325 330 6 6036.0354825813 6168.5686490095 36645.20904334 223824539.08129
38	755167 180 184263 185371 325 330 6 2940.6114358938 2945.8354264517 17657.235314633 51963012.94531
39	755347 180 184263 185371 325 330 6 3246.4519395245 3279.1703999567 19554.706597757 63731850.990693
40	755527 179 184263 185371 325 330 6 4532.848815949 4546.4092722507 27224.46037177 123528662.78493
41	755706 190 184263 185371 325 330 6 -0.82632788838819 0.30975824506022 -0.46767283924855 0.89183150729444
42	755896 169 184263 185371 325 330 6 0.973 5.5573563660664 21.934974521015 95.448982276743
45	756065 179 184263 185371 325 330 6 9.4147558980754 10.566224740529 60.237921724618 605.62182484503
50	756244 180 184263 185371 325 330 6 2019.3126343484 2084.5168251641 12311.345788744 25264514.283223
51	756424 180 184263 185371 325 330 6 4946.7139816096 4951.3643838923 29694.020770842 146955826.5413
52	756604 188 184263 185371 325 330 6 -0.82661881728563 0.79098186537158 0.84268506180961 2.0389859334125
53	756792 159 184263 185371 325 330 6 0.973 3.6460089198721 13.897625524302 38.285778555252
58	756951 180 184263 185371 325 330 6 19.099281278732 31.240360669392 161.29306702801 4446.738470183
59	757131 180 184263 185371 325 330 6 4.9518066319909 12.917851328742 52.033980792449 501.18797178785
60	757311 179 184263 185371 325 330 6 6236.7279833238 6326.6217996058 37687.170127319 236726203.1631
61	757490 180 184263 185371 325 330 6 2199.3068384513 2304.2013488993 13514.074982847 30446183.745674
62	757670 175 184263 185371 325 330 6 7249.5910978776 7249.591198641 43497.547091083 315339433.82349
63	757845 180 184263 185371 325 330 6 2633.8499917377 2633.8500546489 15803.100264982 41622996.330847
64	758025 172 184263 185371 325 330 6 -4.5 2.4952482143141 -7.4055016951501 58.610803537171
65	758197 148 184263 185371 325 330 6 0.973 24.220148146464 49.031644831396 1000.7621649274
66	758345 184 184263 185371 325 330 6 -3.532274334102 1.4002093616175 -4.8452990311769 29.088719372949
67	758529 149 184263 185371 325 330 6 0.973 4.0917092553785 13.923534102441 43.508192516006
69	758678 178 184263 185371 325 330 6 12.650557129441 13.36613187765 78.663867176879 1031.6839547483
74	758856 180 184263 185371 325 330 6 4237.3309983888 4263.4736589036 25483.24406506 108233103.09776
75	759036 178 184263 185371 325 330 6 1534.4918966518 1550.7361182628 9268.8738890895 14318844.646684
78	759214 189 184263 185371 325 330 6 -0.49611811703071 0.59214988518506 -0.015680232085288 0.91404572686138
79	759403 159 184263 185371 325 330 6 0.973 3.8532074348617 12.402672462883 33.314961321319
80	759562 180 184263 185371 325 330 6 24.279480131278 28.754670594443 162.41997882834 4411.6074001073
81	759742 130 184263 185371 325 330 6 0 0.036918258578498 0.037037090873871 0.0013629719375833
84	759872 180 184263 185371 325 330 6 3932.9185965066 3990.5347636319 23772.750529965 94192839.555547
85	760052 180 184263 185371 325 330 6 4920.8726243864 5034.7745615279 29868.069401694 148692803.4241
86	760232 185 184263 185371 325 330 6 -0.56817213576287 2.0966614718083 5.122421444804 10.771807581953
87	760417 181 184263 185371 325 330 6 0.61629263219595 18.452783748067 57.927845781524 816.55452599631
88	760598 149 184263 185371 325 330 6 -0.036799426283124 0 -0.050856523206603 0.0015484871167246
89	760747 140 184263 185371 325 330 6 0.973 1.1116569285159 6.1136616071023 6.2548075132012
92	760887 180 184263 185371 325 330 6 6.1549439247914 14.836488520824 52.602208378348 518.41380496935
97	761067 188 184263 185371 325 330 6 -4.2631414005361 1.6885032821679 -7.2653173442059 35.82504508409
98	761255 140 184263 185371 325 330 6 0.973 4.7246715375948 9.7705288550741 27.440823847259
100	761395 185 184263 185371 325 330 6 25.316932234141 25.777510005279 153.56646546696 3930.584924061
103	761580 195 184263 185371 325 330 6 -0.55768508000765 0.38381376024336 -0.57580386248883 0.69710865973505
104	761775 186 184263 185371 325 330 6 0.4595495669627 6.2953307224419 19.8483346052 90.558711287087
53	761961 80 185664 186162 331 333 3 0.973 4.8521926263069 7.1260012122884 26.18260526015
52	762041 93 185664 186162 331 333 3 -1.2316714343149 1.2272555201314 -0.1698571243789 3.0505414278314
45	762134 89 185664 186162 331 333 3 9.3345533062138 10.561808826345 30.292729748709 306.77015072094
26	762223 90 185664 186162 331 333 3 4194.3064394146 4205.4468093639 12599.673843508 52917322.376134
25	762313 89 185664 186162 331 333 3 6527.4395258563 6545.191246004 19608.876092867 128169498.10686
7	762402 202 185664 187031 331 337 7 2502.4584979651 2560.9959556182 17720.773753918 44863472.174045
8	762604 203 185664 187031 331 337 7 5641.2272632682 5695.4519525554 39677.455558366 224902341.52318
9	762807 202 185664 187031 331 337 7 6981.6246503349 7062.3551817042 49152.351146385 345141334.72872
10	763009 209 185664 187031 331 337 7 3376.9782143303 3492.9555367976 24045.049783415 82605407.243842
15	763218 210 185664 187031 331 337 7 3887.0007903685 3965.8450457394 27511.698565846 108132489.92553
16	763428 208 185664 187031 331 337 7 4968.7201900826 5093.9995120272 35236.326211794 177383617.25105
23	763636 210 185664 187031 331 337 7 12.818603879419 13.639391572071 93.045614259292 1237.4619187723
24	763846 209 185664 187031 331 337 7 23.292653110887 24.109619969719 165.14040239761 3896.431250455
31	764055 220 185664 187031 331 337 7 -0.7166533133015 0.82078769265208 -0.26662780544721 2.4680213233844
32	764275 170 185664 187031 331 337 7 0.973 4.7003700734439 15.908647691723 53.120061562771
33	764445 218 185664 187031 331 337 7 -0.75078630298376 0.45120075191371 -0.042081015021541 1.2529672831937
34	764663 201 185664 187031 331 337 7 0.34966486796171 6.1893376212485 25.928309627738 125.30244441744
35	764864 209 185664 187031 331 337 7 24.702270646982 25.160594596254 174.49460882086 4349.9829264884
37	765073 210 185664 187031 331 337 7 6183.7112257073 6203.0283619873 43389.018280852 268944153.80772
38	765283 209 185664 187031 331 337 7 2943.5650682424 2947.5496993648 20626.116416446 60776681.612099
39	765492 207 185664 187031 331 337 7 3228.7875143551 3245.1662872226 22662.107388895 73367523.741843
40	765699 210 185664 187031 331 337 7 4555.4557599811 4628.3294669837 32139.197659189 147565353.04726
41	765909 219 185664 187031 331 337 7 -0.3891877965536 0.37205920754932 0.030710807302967 0.70459874437778
42	766128 210 185664 187031 331 337 7 1.3857431398206 6.0458542686517 26.474474516898 126.50634831114
50	766338 209 185664 187031 331 337 7 1928.7228658483 2006.2500426758 13771.437868177 27097887.273514
51	766547 210 185664 187031 331 337 7 4940.3897485784 4945.8029412172 34601.612395066 171038819.97645
58	766757 211 185664 187031 331 337 7 0.15644566317623 15.21755761495 34.83892380257 388.47905653163
59	766968 209 185664 187031 331 337 7 9.1376678229752 13.07729680369 83.867514593889 1017.6502555946
60	767177 209 185664 187031 331 337 7 6344.625829002 6414.4749426568 44705.312471306 285513255.26725
61	767386 209 185664 187031 331 337 7 2096.6551512256 2178.2700954254 14905.615719721 31745052.397229
62	767595 203 185664 187031 331 337 7 7249.591198641 7249.591198641 50747.138390487 367896007.83189
63	767798 210 185664 187031 331 337 7 2633.8500546489 2633.8500546489 18436.950382542 48560162.772619
64	768008 184 185664 187031 331 337 7 -4.5 -0.053999499208762 -18.942835615555 77.218764565188
65	768192 150 185664 187031 331 337 7 0.973 1.1155113275356 6.9535113275356 6.9247395218602
66	768342 215 185664 187031 331 337 7 -0.82568641931284 1.7705298127374 5.5281286064175 10.243160203186
67	768557 200 185664 187031 331 337 7 0.973 6.7838897045788 29.256223419671 151.12678192718
69	768757 210 185664 187031 331 337 7 12.469967449627 13.595761602961 90.810022534387 1179.0641288953
74	768967 210 185664 187031 331 337 7 4205.3917730149 4233.9576996181 29541.393480505 124671203.23161
75	769177 208 185664 187031 331 337 7 1443.5983825432 1524.769471077 10396.963970077 15447643.478223
78	769385 218 185664 187031 331 337 7 -1.1257941533346 0.9516565449303 -0.77273956499994 2.9547227126233
79	769603 180 185664 187031 331 337 7 0.973 5.1161947771625 15.272801691965 47.797213026259
80	769783 210 185664 187031 331 337 7 7.0399820836033 28.270123640025 135.10938701587 3007.4872852038
81	769993 112 185664 187031 331 337 7 0 0 0 0
84	770105 210 185664 187031 331 337 7 3812.1471450881 3918.9231072857 27067.262239063 104671439.19255
85	770315 210 185664 187031 331 337 7 5056.8001552796 5166.0476443917 35788.209470279 182979914.18429
86	770525 182 185664 187031 331 337 7 -4.5 0.581718978961 -20.656603307902 90.990385944285
87	770707 160 185664 187031 331 337 7 0.973 8.5242205739357 17.741269850326 96.336314297239
88	770867 112 185664 187031 331 337 7 0 0 0 0
89	770979 140 185664 187031 331 337 7 0.973 0.973 6.811 6.627103
92	771119 207 185664 187031 331 337 7 10.290538199337 15.163041122192 96.34624899052 1347.2022170916
97	771326 214 185664 187031 331 337 7 -0.6973943192279 2.4470909923781 7.3195939152329 15.6469659583
98	771540 197 185664 187031 331 337 7 0.973 9.8374506274026 37.674056553764 258.29519799561
100	771737 217 185664 187031 331 337 7 25.032936703247 26.095971964017 179.31464907317 4594.2437742364
103	771954 227 185664 187031 331 337 7 -0.47156619878951 0.83390546538867 0.22822477328591 1.5606132480722
104	772181 218 185664 187031 331 337 7 0.95035814911573 9.1551395895338 28.90054635619 181.26039823323

