version 3
run Default-0-20230811-03:46:48-8680
attr configname Default
attr datetime 20230811-03:46:48
attr datetimef 20230811-034648
attr experiment Default
attr inifile omnetpp.ini
attr iterationvars ""
attr iterationvarsd ""
attr iterationvarsf ""
attr measurement ""
attr network Scenario
attr processid 8680
attr repetition 0
attr replication #0
attr resultdir results
attr runnumber 0
attr seedset 0
config image-path ../../images:../../../veins/images
config cmdenv-express-mode true
config cmdenv-autoflush true
config cmdenv-status-frequency 1s
config **.cmdenv-log-level info
config image-path ../../images
config network Scenario
config debug-on-errors true
config print-undisposed true
config sim-time-limit 600s
config **.scalar-recording true
config **.vector-recording true
config *.playgroundSizeX 12500m
config *.playgroundSizeY 7500m
config *.playgroundSizeZ 50m
config *.annotations.draw true
config *.obstacles.obstacles "xmldoc(\"config.xml\", \"//AnalogueModel[@type='SimpleObstacleShadowing']/obstacles\")"
config *.manager.updateInterval 1s
config *.manager.host "\"localhost\""
config *.manager.port 9999
config *.manager.autoShutdown true
config *.manager.launchConfig "xmldoc(\"sumo.launchd.xml\")"
config *.rsu[*].applType "\"RSUApplication\""
config *.rsu[0].appl.policySave "\"fed_p_0\""
config *.rsu[0].appl.valueSave "\"fed_v_0\""
config *.rsu[*].appl.headerLength "80 bit"
config *.rsu[*].appl.sendBeacons false
config *.rsu[*].appl.dataOnSch false
config *.rsu[*].appl.beaconInterval 1s
config *.rsu[*].appl.beaconUserPriority 7
config *.rsu[*].appl.dataUserPriority 5
config *.rsu[*].nic.phy80211p.antennaOffsetZ "0 m"
config *.connectionManager.sendDirect true
config *.connectionManager.maxInterfDist 2600m
config *.connectionManager.drawMaxIntfDist false
config *.**.nic.mac1609_4.useServiceChannel false
config *.**.nic.mac1609_4.txPower 20mW
config *.**.nic.mac1609_4.bitrate 6Mbps
config *.**.nic.phy80211p.minPowerLevel -110dBm
config *.**.nic.phy80211p.useNoiseFloor false
config *.**.nic.phy80211p.noiseFloor -98dBm
config *.**.nic.phy80211p.decider "xmldoc(\"config.xml\")"
config *.**.nic.phy80211p.analogueModels "xmldoc(\"config.xml\")"
config *.**.nic.phy80211p.usePropagationDelay true
config *.**.nic.phy80211p.antenna "xmldoc(\"antenna.xml\", \"/root/Antenna[@id='monopole']\")"
config *.node[*].nic.phy80211p.antennaOffsetY "0 m"
config *.node[*].nic.phy80211p.antennaOffsetZ "1.895 m"
config *.node[*].applType "\"VehicleApplication\""
config *.node[*].appl.headerLength "80 bit"
config *.node[*].appl.sendBeacons false
config *.node[*].appl.dataOnSch false
config *.node[*].appl.beaconInterval 1s
config *.node[*].veinsmobility.x 0
config *.node[*].veinsmobility.y 0
config *.node[*].veinsmobility.z 0
config *.node[*].veinsmobility.setHostSpeed false
config *.node[*0].veinsmobility.accidentCount 1
config *.node[*0].veinsmobility.accidentStart 73s
config *.node[*0].veinsmobility.accidentDuration 50s

par Scenario.node[12].appl typename "\"org.car2x.veins.subprojects.iov_sim.modules.applications.VehicleApplication\""
par Scenario.node[12].appl headerLength 80bit
attr unit bit
par Scenario.node[12].appl sendBeacons false
par Scenario.node[12].appl beaconLengthBits 256bit
attr unit bit
par Scenario.node[12].appl beaconUserPriority 7
par Scenario.node[12].appl beaconInterval 1s
attr unit s
par Scenario.node[12].appl dataLengthBits 1024bit
attr unit bit
par Scenario.node[12].appl dataOnSch false
par Scenario.node[12].appl dataUserPriority 7
par Scenario.node[12].appl avoidBeaconSynchronization true
par Scenario.node[12].appl sendWSA false
par Scenario.node[12].appl wsaLengthBits 250bit
attr unit bit
par Scenario.node[12].appl wsaInterval 1s
attr unit s
par Scenario.node[12].appl appName "\"Vehicle Application\""
par Scenario.node[12].appl clusterBeaconDelay 5
par Scenario.node[12].appl localStepsPerEpoch 5
par Scenario.node[12].appl neighborTableTimeout 30
par Scenario.node[12].appl clusterElectionTimeout 3
par Scenario.node[12].appl clusterHeadTimeout 3
par Scenario.node[12].appl connectivityThreshold 0.6
par Scenario.node[12].appl electionScoreThreshold 0.6
par Scenario.node[12].appl clusterScoreThreshold 0.6
scalar Scenario.node[12].appl generatedWSMs 44
scalar Scenario.node[12].appl receivedWSMs 0
scalar Scenario.node[12].appl generatedBSMs 0
scalar Scenario.node[12].appl receivedBSMs 0
scalar Scenario.node[12].appl generatedWSAs 0
scalar Scenario.node[12].appl receivedWSAs 0
scalar Scenario.node[12].appl sendPackets 2
scalar Scenario.node[12].appl rcvdPackets 0
scalar Scenario.node[12].appl avgPacketDelivery 0
scalar Scenario.node[12].appl avgPacketDelay 0
scalar Scenario.node[12].appl avgClusterLifetime 0.475507721416
scalar Scenario.node[12].appl lifetimeSpentInCluster 1.5850257380533
scalar Scenario.node[12].appl timeAlive 60
par Scenario.node[12].nic.phy80211p typename "\"org.car2x.veins.modules.phy.PhyLayer80211p\""
par Scenario.node[12].nic.phy80211p recordStats false
par Scenario.node[12].nic.phy80211p usePropagationDelay true
par Scenario.node[12].nic.phy80211p noiseFloor -98dBm
attr unit dBm
par Scenario.node[12].nic.phy80211p useNoiseFloor false
par Scenario.node[12].nic.phy80211p antenna "<Antenna type=\"SampledAntenna1D\" id=\"monopole\">...</Antenna> at /home/chandler/src/iov_sim/examples/iov_sim//antenna.xml:35"
par Scenario.node[12].nic.phy80211p antennaOffsetX 0m
attr unit m
par Scenario.node[12].nic.phy80211p antennaOffsetY 0m
attr unit m
par Scenario.node[12].nic.phy80211p antennaOffsetZ 1.895m
attr unit m
par Scenario.node[12].nic.phy80211p antennaOffsetYaw 0rad
attr unit rad
par Scenario.node[12].nic.phy80211p analogueModels "<root>...</root> at /home/chandler/src/iov_sim/examples/iov_sim//config.xml:34"
par Scenario.node[12].nic.phy80211p decider "<root>...</root> at /home/chandler/src/iov_sim/examples/iov_sim//config.xml:34"
par Scenario.node[12].nic.phy80211p minPowerLevel -110dBm
attr unit dBm
par Scenario.node[12].nic.phy80211p timeRXToTX 0s
attr unit s
par Scenario.node[12].nic.phy80211p timeRXToSleep 0s
attr unit s
par Scenario.node[12].nic.phy80211p timeTXToRX 0s
attr unit s
par Scenario.node[12].nic.phy80211p timeTXToSleep 0s
attr unit s
par Scenario.node[12].nic.phy80211p timeSleepToRX 0s
attr unit s
par Scenario.node[12].nic.phy80211p timeSleepToTX 0s
attr unit s
par Scenario.node[12].nic.phy80211p initialRadioState 0
par Scenario.node[12].nic.phy80211p radioMinAtt 1
par Scenario.node[12].nic.phy80211p radioMaxAtt 0
par Scenario.node[12].nic.phy80211p nbRadioChannels 1
par Scenario.node[12].nic.phy80211p initialRadioChannel 0
par Scenario.node[12].nic.phy80211p ccaThreshold -65dBm
attr unit dBm
par Scenario.node[12].nic.phy80211p collectCollisionStatistics false
par Scenario.node[12].nic.phy80211p allowTxDuringRx false
scalar Scenario.node[12].nic.phy80211p busyTime 0.00023586666666667
par Scenario.node[12].nic.mac1609_4 typename "\"org.car2x.veins.modules.mac.ieee80211p.Mac1609_4\""
par Scenario.node[12].nic.mac1609_4 notAffectedByHostState false
par Scenario.node[12].nic.mac1609_4 headerLength 0bit
attr unit bit
par Scenario.node[12].nic.mac1609_4 address "\"auto\""
par Scenario.node[12].nic.mac1609_4 useServiceChannel false
par Scenario.node[12].nic.mac1609_4 serviceChannel 1
par Scenario.node[12].nic.mac1609_4 bitrate 6000000bps
attr unit bps
par Scenario.node[12].nic.mac1609_4 syncOffset 0.0003s
attr unit s
par Scenario.node[12].nic.mac1609_4 txPower 20mW
attr unit mW
par Scenario.node[12].nic.mac1609_4 queueSize 0
par Scenario.node[12].nic.mac1609_4 dot11RTSThreshold 12000bit
attr unit bit
par Scenario.node[12].nic.mac1609_4 dot11ShortRetryLimit 7
par Scenario.node[12].nic.mac1609_4 dot11LongRetryLimit 4
par Scenario.node[12].nic.mac1609_4 ackLength 112bit
attr unit bit
par Scenario.node[12].nic.mac1609_4 useAcks false
par Scenario.node[12].nic.mac1609_4 frameErrorRate 0
par Scenario.node[12].nic.mac1609_4 ackErrorRate 0
scalar Scenario.node[12].nic.mac1609_4 ReceivedUnicastPackets 0
scalar Scenario.node[12].nic.mac1609_4 ReceivedBroadcasts 41
scalar Scenario.node[12].nic.mac1609_4 SentPackets 43
scalar Scenario.node[12].nic.mac1609_4 SentAcknowledgements 0
scalar Scenario.node[12].nic.mac1609_4 RetriesExceeded 0
scalar Scenario.node[12].nic.mac1609_4 SNIRLostPackets 20
scalar Scenario.node[12].nic.mac1609_4 RXTXLostPackets 1
scalar Scenario.node[12].nic.mac1609_4 TotalLostPackets 21
scalar Scenario.node[12].nic.mac1609_4 DroppedPacketsInMac 0
scalar Scenario.node[12].nic.mac1609_4 TooLittleTime 0
scalar Scenario.node[12].nic.mac1609_4 TimesIntoBackoff 43
scalar Scenario.node[12].nic.mac1609_4 SlotsBackoff 91
scalar Scenario.node[12].nic.mac1609_4 NumInternalContention 0
scalar Scenario.node[12].nic.mac1609_4 totalBusyTime 0.020923
scalar Scenario.node[12].nic.mac1609_4 retriesExceeded:count 0
attr moduledisplaypath "Scenario.electing CH src...nic.mac1609_4"
attr recordingmode count
attr source org_car2x_veins_modules_mac_sigRetriesExceeded
scalar Scenario.node[12].nic.mac1609_4 sentAcks:count 0
attr moduledisplaypath "Scenario.electing CH src...nic.mac1609_4"
attr recordingmode count
attr source org_car2x_veins_modules_mac_sigSentAck
scalar Scenario.node[12].nic.mac1609_4 sentPackets:count 43
attr moduledisplaypath "Scenario.electing CH src...nic.mac1609_4"
attr recordingmode count
attr source org_car2x_veins_modules_mac_sigSentPacket
scalar Scenario.node[12].nic.mac1609_4 collisions:count 0
attr moduledisplaypath "Scenario.electing CH src...nic.mac1609_4"
attr recordingmode count
attr source org_car2x_veins_modules_mac_sigCollision
scalar Scenario.node[12].nic.mac1609_4 channelBusy:timeavg 0.00034871666666667
attr moduledisplaypath "Scenario.electing CH src...nic.mac1609_4"
attr recordingmode timeavg
attr source org_car2x_veins_modules_mac_sigChannelBusy
par Scenario.node[12].nic typename "\"org.car2x.veins.modules.nic.Nic80211p\""
par Scenario.node[12].nic connectionManagerName "\"connectionManager\""
par Scenario.node[12].veinsmobility typename "\"org.car2x.veins.modules.mobility.traci.TraCIMobility\""
par Scenario.node[12].veinsmobility notAffectedByHostState true
par Scenario.node[12].veinsmobility x 0
par Scenario.node[12].veinsmobility y 0
par Scenario.node[12].veinsmobility z 0
par Scenario.node[12].veinsmobility xOrientation 1
par Scenario.node[12].veinsmobility yOrientation 0
par Scenario.node[12].veinsmobility zOrientation 0
par Scenario.node[12].veinsmobility hostPositionOffset 0m
attr unit m
par Scenario.node[12].veinsmobility setHostSpeed false
par Scenario.node[12].veinsmobility accidentCount 0
par Scenario.node[12].veinsmobility accidentStart 30.5758s
attr unit s
par Scenario.node[12].veinsmobility accidentDuration "uniform(30s, 60s)"
attr unit s
par Scenario.node[12].veinsmobility accidentInterval "uniform(30s, 60s)"
attr unit s
scalar Scenario.node[12].veinsmobility startTime 7
scalar Scenario.node[12].veinsmobility totalTime 59
scalar Scenario.node[12].veinsmobility stopTime 67
scalar Scenario.node[12].veinsmobility minSpeed 1.5165522359312
scalar Scenario.node[12].veinsmobility maxSpeed 19.469979780959
scalar Scenario.node[12].veinsmobility totalDistance 658.2989783037
scalar Scenario.node[12].veinsmobility totalCO2Emission 207.16506048266
par Scenario.node[12] typename "\"org.car2x.veins.nodes.Car\""
par Scenario.node[12] applType "\"VehicleApplication\""
par Scenario.node[12] nicType "\"Nic80211p\""
par Scenario.node[12] veinsmobilityType "\"org.car2x.veins.modules.mobility.traci.TraCIMobility\""
par Scenario.node[0].appl typename "\"org.car2x.veins.subprojects.iov_sim.modules.applications.VehicleApplication\""
par Scenario.node[0].appl headerLength 80bit
attr unit bit
par Scenario.node[0].appl sendBeacons false
par Scenario.node[0].appl beaconLengthBits 256bit
attr unit bit
par Scenario.node[0].appl beaconUserPriority 7
par Scenario.node[0].appl beaconInterval 1s
attr unit s
par Scenario.node[0].appl dataLengthBits 1024bit
attr unit bit
par Scenario.node[0].appl dataOnSch false
par Scenario.node[0].appl dataUserPriority 7
par Scenario.node[0].appl avoidBeaconSynchronization true
par Scenario.node[0].appl sendWSA false
par Scenario.node[0].appl wsaLengthBits 250bit
attr unit bit
par Scenario.node[0].appl wsaInterval 1s
attr unit s
par Scenario.node[0].appl appName "\"Vehicle Application\""
par Scenario.node[0].appl clusterBeaconDelay 5
par Scenario.node[0].appl localStepsPerEpoch 5
par Scenario.node[0].appl neighborTableTimeout 30
par Scenario.node[0].appl clusterElectionTimeout 3
par Scenario.node[0].appl clusterHeadTimeout 3
par Scenario.node[0].appl connectivityThreshold 0.6
par Scenario.node[0].appl electionScoreThreshold 0.6
par Scenario.node[0].appl clusterScoreThreshold 0.6
scalar Scenario.node[0].appl generatedWSMs 43
scalar Scenario.node[0].appl receivedWSMs 0
scalar Scenario.node[0].appl generatedBSMs 0
scalar Scenario.node[0].appl receivedBSMs 0
scalar Scenario.node[0].appl generatedWSAs 0
scalar Scenario.node[0].appl receivedWSAs 0
scalar Scenario.node[0].appl sendPackets 3
scalar Scenario.node[0].appl rcvdPackets 1
scalar Scenario.node[0].appl avgPacketDelivery 33.333333333333
scalar Scenario.node[0].appl avgPacketDelay 0.30808971499852
scalar Scenario.node[0].appl avgClusterLifetime 6.5159345705285
scalar Scenario.node[0].appl lifetimeSpentInCluster 19.164513442731
scalar Scenario.node[0].appl timeAlive 68
par Scenario.node[0].nic.phy80211p typename "\"org.car2x.veins.modules.phy.PhyLayer80211p\""
par Scenario.node[0].nic.phy80211p recordStats false
par Scenario.node[0].nic.phy80211p usePropagationDelay true
par Scenario.node[0].nic.phy80211p noiseFloor -98dBm
attr unit dBm
par Scenario.node[0].nic.phy80211p useNoiseFloor false
par Scenario.node[0].nic.phy80211p antenna "<Antenna type=\"SampledAntenna1D\" id=\"monopole\">...</Antenna> at /home/chandler/src/iov_sim/examples/iov_sim//antenna.xml:35"
par Scenario.node[0].nic.phy80211p antennaOffsetX 0m
attr unit m
par Scenario.node[0].nic.phy80211p antennaOffsetY 0m
attr unit m
par Scenario.node[0].nic.phy80211p antennaOffsetZ 1.895m
attr unit m
par Scenario.node[0].nic.phy80211p antennaOffsetYaw 0rad
attr unit rad
par Scenario.node[0].nic.phy80211p analogueModels "<root>...</root> at /home/chandler/src/iov_sim/examples/iov_sim//config.xml:34"
par Scenario.node[0].nic.phy80211p decider "<root>...</root> at /home/chandler/src/iov_sim/examples/iov_sim//config.xml:34"
par Scenario.node[0].nic.phy80211p minPowerLevel -110dBm
attr unit dBm
par Scenario.node[0].nic.phy80211p timeRXToTX 0s
attr unit s
par Scenario.node[0].nic.phy80211p timeRXToSleep 0s
attr unit s
par Scenario.node[0].nic.phy80211p timeTXToRX 0s
attr unit s
par Scenario.node[0].nic.phy80211p timeTXToSleep 0s
attr unit s
par Scenario.node[0].nic.phy80211p timeSleepToRX 0s
attr unit s
par Scenario.node[0].nic.phy80211p timeSleepToTX 0s
attr unit s
par Scenario.node[0].nic.phy80211p initialRadioState 0
par Scenario.node[0].nic.phy80211p radioMinAtt 1
par Scenario.node[0].nic.phy80211p radioMaxAtt 0
par Scenario.node[0].nic.phy80211p nbRadioChannels 1
par Scenario.node[0].nic.phy80211p initialRadioChannel 0
par Scenario.node[0].nic.phy80211p ccaThreshold -65dBm
attr unit dBm
par Scenario.node[0].nic.phy80211p collectCollisionStatistics false
par Scenario.node[0].nic.phy80211p allowTxDuringRx false
scalar Scenario.node[0].nic.phy80211p busyTime 0.00030023529411765
par Scenario.node[0].nic.mac1609_4 typename "\"org.car2x.veins.modules.mac.ieee80211p.Mac1609_4\""
par Scenario.node[0].nic.mac1609_4 notAffectedByHostState false
par Scenario.node[0].nic.mac1609_4 headerLength 0bit
attr unit bit
par Scenario.node[0].nic.mac1609_4 address "\"auto\""
par Scenario.node[0].nic.mac1609_4 useServiceChannel false
par Scenario.node[0].nic.mac1609_4 serviceChannel 1
par Scenario.node[0].nic.mac1609_4 bitrate 6000000bps
attr unit bps
par Scenario.node[0].nic.mac1609_4 syncOffset 0.0003s
attr unit s
par Scenario.node[0].nic.mac1609_4 txPower 20mW
attr unit mW
par Scenario.node[0].nic.mac1609_4 queueSize 0
par Scenario.node[0].nic.mac1609_4 dot11RTSThreshold 12000bit
attr unit bit
par Scenario.node[0].nic.mac1609_4 dot11ShortRetryLimit 7
par Scenario.node[0].nic.mac1609_4 dot11LongRetryLimit 4
par Scenario.node[0].nic.mac1609_4 ackLength 112bit
attr unit bit
par Scenario.node[0].nic.mac1609_4 useAcks false
par Scenario.node[0].nic.mac1609_4 frameErrorRate 0
par Scenario.node[0].nic.mac1609_4 ackErrorRate 0
scalar Scenario.node[0].nic.mac1609_4 ReceivedUnicastPackets 0
scalar Scenario.node[0].nic.mac1609_4 ReceivedBroadcasts 87
scalar Scenario.node[0].nic.mac1609_4 SentPackets 43
scalar Scenario.node[0].nic.mac1609_4 SentAcknowledgements 0
scalar Scenario.node[0].nic.mac1609_4 RetriesExceeded 0
scalar Scenario.node[0].nic.mac1609_4 SNIRLostPackets 1
scalar Scenario.node[0].nic.mac1609_4 RXTXLostPackets 12
scalar Scenario.node[0].nic.mac1609_4 TotalLostPackets 13
scalar Scenario.node[0].nic.mac1609_4 DroppedPacketsInMac 0
scalar Scenario.node[0].nic.mac1609_4 TooLittleTime 0
scalar Scenario.node[0].nic.mac1609_4 TimesIntoBackoff 43
scalar Scenario.node[0].nic.mac1609_4 SlotsBackoff 72
scalar Scenario.node[0].nic.mac1609_4 NumInternalContention 0
scalar Scenario.node[0].nic.mac1609_4 totalBusyTime 0.030203
scalar Scenario.node[0].nic.mac1609_4 retriesExceeded:count 0
attr moduledisplaypath "Scenario.electing CH src...nic.mac1609_4"
attr recordingmode count
attr source org_car2x_veins_modules_mac_sigRetriesExceeded
scalar Scenario.node[0].nic.mac1609_4 sentAcks:count 0
attr moduledisplaypath "Scenario.electing CH src...nic.mac1609_4"
attr recordingmode count
attr source org_car2x_veins_modules_mac_sigSentAck
scalar Scenario.node[0].nic.mac1609_4 sentPackets:count 43
attr moduledisplaypath "Scenario.electing CH src...nic.mac1609_4"
attr recordingmode count
attr source org_car2x_veins_modules_mac_sigSentPacket
scalar Scenario.node[0].nic.mac1609_4 collisions:count 0
attr moduledisplaypath "Scenario.electing CH src...nic.mac1609_4"
attr recordingmode count
attr source org_car2x_veins_modules_mac_sigCollision
scalar Scenario.node[0].nic.mac1609_4 channelBusy:timeavg 0.00044416176470588
attr moduledisplaypath "Scenario.electing CH src...nic.mac1609_4"
attr recordingmode timeavg
attr source org_car2x_veins_modules_mac_sigChannelBusy
par Scenario.node[0].nic typename "\"org.car2x.veins.modules.nic.Nic80211p\""
par Scenario.node[0].nic connectionManagerName "\"connectionManager\""
par Scenario.node[0].veinsmobility typename "\"org.car2x.veins.modules.mobility.traci.TraCIMobility\""
par Scenario.node[0].veinsmobility notAffectedByHostState true
par Scenario.node[0].veinsmobility x 0
par Scenario.node[0].veinsmobility y 0
par Scenario.node[0].veinsmobility z 0
par Scenario.node[0].veinsmobility xOrientation 1
par Scenario.node[0].veinsmobility yOrientation 0
par Scenario.node[0].veinsmobility zOrientation 0
par Scenario.node[0].veinsmobility hostPositionOffset 0m
attr unit m
par Scenario.node[0].veinsmobility setHostSpeed false
par Scenario.node[0].veinsmobility accidentCount 1
par Scenario.node[0].veinsmobility accidentStart 73s
attr unit s
par Scenario.node[0].veinsmobility accidentDuration 50s
attr unit s
par Scenario.node[0].veinsmobility accidentInterval "uniform(30s, 60s)"
attr unit s
scalar Scenario.node[0].veinsmobility startTime 1
scalar Scenario.node[0].veinsmobility totalTime 67
scalar Scenario.node[0].veinsmobility stopTime 69
scalar Scenario.node[0].veinsmobility minSpeed 3.7178716257677
scalar Scenario.node[0].veinsmobility maxSpeed 15.488791945779
scalar Scenario.node[0].veinsmobility totalDistance 844.00801235552
scalar Scenario.node[0].veinsmobility totalCO2Emission 207.95094535065
par Scenario.node[0] typename "\"org.car2x.veins.nodes.Car\""
par Scenario.node[0] applType "\"VehicleApplication\""
par Scenario.node[0] nicType "\"Nic80211p\""
par Scenario.node[0] veinsmobilityType "\"org.car2x.veins.modules.mobility.traci.TraCIMobility\""
par Scenario.node[6].appl typename "\"org.car2x.veins.subprojects.iov_sim.modules.applications.VehicleApplication\""
par Scenario.node[6].appl headerLength 80bit
attr unit bit
par Scenario.node[6].appl sendBeacons false
par Scenario.node[6].appl beaconLengthBits 256bit
attr unit bit
par Scenario.node[6].appl beaconUserPriority 7
par Scenario.node[6].appl beaconInterval 1s
attr unit s
par Scenario.node[6].appl dataLengthBits 1024bit
attr unit bit
par Scenario.node[6].appl dataOnSch false
par Scenario.node[6].appl dataUserPriority 7
par Scenario.node[6].appl avoidBeaconSynchronization true
par Scenario.node[6].appl sendWSA false
par Scenario.node[6].appl wsaLengthBits 250bit
attr unit bit
par Scenario.node[6].appl wsaInterval 1s
attr unit s
par Scenario.node[6].appl appName "\"Vehicle Application\""
par Scenario.node[6].appl clusterBeaconDelay 5
par Scenario.node[6].appl localStepsPerEpoch 5
par Scenario.node[6].appl neighborTableTimeout 30
par Scenario.node[6].appl clusterElectionTimeout 3
par Scenario.node[6].appl clusterHeadTimeout 3
par Scenario.node[6].appl connectivityThreshold 0.6
par Scenario.node[6].appl electionScoreThreshold 0.6
par Scenario.node[6].appl clusterScoreThreshold 0.6
scalar Scenario.node[6].appl generatedWSMs 80
scalar Scenario.node[6].appl receivedWSMs 0
scalar Scenario.node[6].appl generatedBSMs 0
scalar Scenario.node[6].appl receivedBSMs 0
scalar Scenario.node[6].appl generatedWSAs 0
scalar Scenario.node[6].appl receivedWSAs 0
scalar Scenario.node[6].appl sendPackets 11
scalar Scenario.node[6].appl rcvdPackets 5
scalar Scenario.node[6].appl avgPacketDelivery 45.454545454545
scalar Scenario.node[6].appl avgPacketDelay 0.2986615092027
scalar Scenario.node[6].appl avgClusterLifetime 4.8430915363263
scalar Scenario.node[6].appl lifetimeSpentInCluster 24.625889167761
scalar Scenario.node[6].appl timeAlive 118
par Scenario.node[6].nic.phy80211p typename "\"org.car2x.veins.modules.phy.PhyLayer80211p\""
par Scenario.node[6].nic.phy80211p recordStats false
par Scenario.node[6].nic.phy80211p usePropagationDelay true
par Scenario.node[6].nic.phy80211p noiseFloor -98dBm
attr unit dBm
par Scenario.node[6].nic.phy80211p useNoiseFloor false
par Scenario.node[6].nic.phy80211p antenna "<Antenna type=\"SampledAntenna1D\" id=\"monopole\">...</Antenna> at /home/chandler/src/iov_sim/examples/iov_sim//antenna.xml:35"
par Scenario.node[6].nic.phy80211p antennaOffsetX 0m
attr unit m
par Scenario.node[6].nic.phy80211p antennaOffsetY 0m
attr unit m
par Scenario.node[6].nic.phy80211p antennaOffsetZ 1.895m
attr unit m
par Scenario.node[6].nic.phy80211p antennaOffsetYaw 0rad
attr unit rad
par Scenario.node[6].nic.phy80211p analogueModels "<root>...</root> at /home/chandler/src/iov_sim/examples/iov_sim//config.xml:34"
par Scenario.node[6].nic.phy80211p decider "<root>...</root> at /home/chandler/src/iov_sim/examples/iov_sim//config.xml:34"
par Scenario.node[6].nic.phy80211p minPowerLevel -110dBm
attr unit dBm
par Scenario.node[6].nic.phy80211p timeRXToTX 0s
attr unit s
par Scenario.node[6].nic.phy80211p timeRXToSleep 0s
attr unit s
par Scenario.node[6].nic.phy80211p timeTXToRX 0s
attr unit s
par Scenario.node[6].nic.phy80211p timeTXToSleep 0s
attr unit s
par Scenario.node[6].nic.phy80211p timeSleepToRX 0s
attr unit s
par Scenario.node[6].nic.phy80211p timeSleepToTX 0s
attr unit s
par Scenario.node[6].nic.phy80211p initialRadioState 0
par Scenario.node[6].nic.phy80211p radioMinAtt 1
par Scenario.node[6].nic.phy80211p radioMaxAtt 0
par Scenario.node[6].nic.phy80211p nbRadioChannels 1
par Scenario.node[6].nic.phy80211p initialRadioChannel 0
par Scenario.node[6].nic.phy80211p ccaThreshold -65dBm
attr unit dBm
par Scenario.node[6].nic.phy80211p collectCollisionStatistics false
par Scenario.node[6].nic.phy80211p allowTxDuringRx false
scalar Scenario.node[6].nic.phy80211p busyTime 0.00026738983050847
par Scenario.node[6].nic.mac1609_4 typename "\"org.car2x.veins.modules.mac.ieee80211p.Mac1609_4\""
par Scenario.node[6].nic.mac1609_4 notAffectedByHostState false
par Scenario.node[6].nic.mac1609_4 headerLength 0bit
attr unit bit
par Scenario.node[6].nic.mac1609_4 address "\"auto\""
par Scenario.node[6].nic.mac1609_4 useServiceChannel false
par Scenario.node[6].nic.mac1609_4 serviceChannel 1
par Scenario.node[6].nic.mac1609_4 bitrate 6000000bps
attr unit bps
par Scenario.node[6].nic.mac1609_4 syncOffset 0.0003s
attr unit s
par Scenario.node[6].nic.mac1609_4 txPower 20mW
attr unit mW
par Scenario.node[6].nic.mac1609_4 queueSize 0
par Scenario.node[6].nic.mac1609_4 dot11RTSThreshold 12000bit
attr unit bit
par Scenario.node[6].nic.mac1609_4 dot11ShortRetryLimit 7
par Scenario.node[6].nic.mac1609_4 dot11LongRetryLimit 4
par Scenario.node[6].nic.mac1609_4 ackLength 112bit
attr unit bit
par Scenario.node[6].nic.mac1609_4 useAcks false
par Scenario.node[6].nic.mac1609_4 frameErrorRate 0
par Scenario.node[6].nic.mac1609_4 ackErrorRate 0
scalar Scenario.node[6].nic.mac1609_4 ReceivedUnicastPackets 0
scalar Scenario.node[6].nic.mac1609_4 ReceivedBroadcasts 117
scalar Scenario.node[6].nic.mac1609_4 SentPackets 80
scalar Scenario.node[6].nic.mac1609_4 SentAcknowledgements 0
scalar Scenario.node[6].nic.mac1609_4 RetriesExceeded 0
scalar Scenario.node[6].nic.mac1609_4 SNIRLostPackets 19
scalar Scenario.node[6].nic.mac1609_4 RXTXLostPackets 6
scalar Scenario.node[6].nic.mac1609_4 TotalLostPackets 25
scalar Scenario.node[6].nic.mac1609_4 DroppedPacketsInMac 0
scalar Scenario.node[6].nic.mac1609_4 TooLittleTime 0
scalar Scenario.node[6].nic.mac1609_4 TimesIntoBackoff 80
scalar Scenario.node[6].nic.mac1609_4 SlotsBackoff 132
scalar Scenario.node[6].nic.mac1609_4 NumInternalContention 0
scalar Scenario.node[6].nic.mac1609_4 totalBusyTime 0.047872
scalar Scenario.node[6].nic.mac1609_4 retriesExceeded:count 0
attr moduledisplaypath "Scenario.node[18]'s CM.nic.mac1609_4"
attr recordingmode count
attr source org_car2x_veins_modules_mac_sigRetriesExceeded
scalar Scenario.node[6].nic.mac1609_4 sentAcks:count 0
attr moduledisplaypath "Scenario.node[18]'s CM.nic.mac1609_4"
attr recordingmode count
attr source org_car2x_veins_modules_mac_sigSentAck
scalar Scenario.node[6].nic.mac1609_4 sentPackets:count 80
attr moduledisplaypath "Scenario.node[18]'s CM.nic.mac1609_4"
attr recordingmode count
attr source org_car2x_veins_modules_mac_sigSentPacket
scalar Scenario.node[6].nic.mac1609_4 collisions:count 0
attr moduledisplaypath "Scenario.node[18]'s CM.nic.mac1609_4"
attr recordingmode count
attr source org_car2x_veins_modules_mac_sigCollision
scalar Scenario.node[6].nic.mac1609_4 channelBusy:timeavg 0.00040569491525424
attr moduledisplaypath "Scenario.node[18]'s CM.nic.mac1609_4"
attr recordingmode timeavg
attr source org_car2x_veins_modules_mac_sigChannelBusy
par Scenario.node[6].nic typename "\"org.car2x.veins.modules.nic.Nic80211p\""
par Scenario.node[6].nic connectionManagerName "\"connectionManager\""
par Scenario.node[6].veinsmobility typename "\"org.car2x.veins.modules.mobility.traci.TraCIMobility\""
par Scenario.node[6].veinsmobility notAffectedByHostState true
par Scenario.node[6].veinsmobility x 0
par Scenario.node[6].veinsmobility y 0
par Scenario.node[6].veinsmobility z 0
par Scenario.node[6].veinsmobility xOrientation 1
par Scenario.node[6].veinsmobility yOrientation 0
par Scenario.node[6].veinsmobility zOrientation 0
par Scenario.node[6].veinsmobility hostPositionOffset 0m
attr unit m
par Scenario.node[6].veinsmobility setHostSpeed false
par Scenario.node[6].veinsmobility accidentCount 0
par Scenario.node[6].veinsmobility accidentStart 34.8393s
attr unit s
par Scenario.node[6].veinsmobility accidentDuration "uniform(30s, 60s)"
attr unit s
par Scenario.node[6].veinsmobility accidentInterval "uniform(30s, 60s)"
attr unit s
scalar Scenario.node[6].veinsmobility startTime 4
scalar Scenario.node[6].veinsmobility totalTime 117
scalar Scenario.node[6].veinsmobility stopTime 122
scalar Scenario.node[6].veinsmobility minSpeed 2.2737992957234
scalar Scenario.node[6].veinsmobility maxSpeed 26.223162198536
scalar Scenario.node[6].veinsmobility totalDistance 2062.57330316
scalar Scenario.node[6].veinsmobility totalCO2Emission 521.21147053396
par Scenario.node[6] typename "\"org.car2x.veins.nodes.Car\""
par Scenario.node[6] applType "\"VehicleApplication\""
par Scenario.node[6] nicType "\"Nic80211p\""
par Scenario.node[6] veinsmobilityType "\"org.car2x.veins.modules.mobility.traci.TraCIMobility\""
par Scenario.node[2].appl typename "\"org.car2x.veins.subprojects.iov_sim.modules.applications.VehicleApplication\""
par Scenario.node[2].appl headerLength 80bit
attr unit bit
par Scenario.node[2].appl sendBeacons false
par Scenario.node[2].appl beaconLengthBits 256bit
attr unit bit
par Scenario.node[2].appl beaconUserPriority 7
par Scenario.node[2].appl beaconInterval 1s
attr unit s
par Scenario.node[2].appl dataLengthBits 1024bit
attr unit bit
par Scenario.node[2].appl dataOnSch false
par Scenario.node[2].appl dataUserPriority 7
par Scenario.node[2].appl avoidBeaconSynchronization true
par Scenario.node[2].appl sendWSA false
par Scenario.node[2].appl wsaLengthBits 250bit
attr unit bit
par Scenario.node[2].appl wsaInterval 1s
attr unit s
par Scenario.node[2].appl appName "\"Vehicle Application\""
par Scenario.node[2].appl clusterBeaconDelay 5
par Scenario.node[2].appl localStepsPerEpoch 5
par Scenario.node[2].appl neighborTableTimeout 30
par Scenario.node[2].appl clusterElectionTimeout 3
par Scenario.node[2].appl clusterHeadTimeout 3
par Scenario.node[2].appl connectivityThreshold 0.6
par Scenario.node[2].appl electionScoreThreshold 0.6
par Scenario.node[2].appl clusterScoreThreshold 0.6
scalar Scenario.node[2].appl generatedWSMs 121
scalar Scenario.node[2].appl receivedWSMs 0
scalar Scenario.node[2].appl generatedBSMs 0
scalar Scenario.node[2].appl receivedBSMs 0
scalar Scenario.node[2].appl generatedWSAs 0
scalar Scenario.node[2].appl receivedWSAs 0
scalar Scenario.node[2].appl sendPackets 0
scalar Scenario.node[2].appl rcvdPackets 0
scalar Scenario.node[2].appl avgPacketDelivery 0
scalar Scenario.node[2].appl avgPacketDelay 0
scalar Scenario.node[2].appl avgClusterLifetime 0
scalar Scenario.node[2].appl lifetimeSpentInCluster 0
scalar Scenario.node[2].appl timeAlive 181
par Scenario.node[2].nic.phy80211p typename "\"org.car2x.veins.modules.phy.PhyLayer80211p\""
par Scenario.node[2].nic.phy80211p recordStats false
par Scenario.node[2].nic.phy80211p usePropagationDelay true
par Scenario.node[2].nic.phy80211p noiseFloor -98dBm
attr unit dBm
par Scenario.node[2].nic.phy80211p useNoiseFloor false
par Scenario.node[2].nic.phy80211p antenna "<Antenna type=\"SampledAntenna1D\" id=\"monopole\">...</Antenna> at /home/chandler/src/iov_sim/examples/iov_sim//antenna.xml:35"
par Scenario.node[2].nic.phy80211p antennaOffsetX 0m
attr unit m
par Scenario.node[2].nic.phy80211p antennaOffsetY 0m
attr unit m
par Scenario.node[2].nic.phy80211p antennaOffsetZ 1.895m
attr unit m
par Scenario.node[2].nic.phy80211p antennaOffsetYaw 0rad
attr unit rad
par Scenario.node[2].nic.phy80211p analogueModels "<root>...</root> at /home/chandler/src/iov_sim/examples/iov_sim//config.xml:34"
par Scenario.node[2].nic.phy80211p decider "<root>...</root> at /home/chandler/src/iov_sim/examples/iov_sim//config.xml:34"
par Scenario.node[2].nic.phy80211p minPowerLevel -110dBm
attr unit dBm
par Scenario.node[2].nic.phy80211p timeRXToTX 0s
attr unit s
par Scenario.node[2].nic.phy80211p timeRXToSleep 0s
attr unit s
par Scenario.node[2].nic.phy80211p timeTXToRX 0s
attr unit s
par Scenario.node[2].nic.phy80211p timeTXToSleep 0s
attr unit s
par Scenario.node[2].nic.phy80211p timeSleepToRX 0s
attr unit s
par Scenario.node[2].nic.phy80211p timeSleepToTX 0s
attr unit s
par Scenario.node[2].nic.phy80211p initialRadioState 0
par Scenario.node[2].nic.phy80211p radioMinAtt 1
par Scenario.node[2].nic.phy80211p radioMaxAtt 0
par Scenario.node[2].nic.phy80211p nbRadioChannels 1
par Scenario.node[2].nic.phy80211p initialRadioChannel 0
par Scenario.node[2].nic.phy80211p ccaThreshold -65dBm
attr unit dBm
par Scenario.node[2].nic.phy80211p collectCollisionStatistics false
par Scenario.node[2].nic.phy80211p allowTxDuringRx false
scalar Scenario.node[2].nic.phy80211p busyTime 3.9734806629834e-05
par Scenario.node[2].nic.mac1609_4 typename "\"org.car2x.veins.modules.mac.ieee80211p.Mac1609_4\""
par Scenario.node[2].nic.mac1609_4 notAffectedByHostState false
par Scenario.node[2].nic.mac1609_4 headerLength 0bit
attr unit bit
par Scenario.node[2].nic.mac1609_4 address "\"auto\""
par Scenario.node[2].nic.mac1609_4 useServiceChannel false
par Scenario.node[2].nic.mac1609_4 serviceChannel 1
par Scenario.node[2].nic.mac1609_4 bitrate 6000000bps
attr unit bps
par Scenario.node[2].nic.mac1609_4 syncOffset 0.0003s
attr unit s
par Scenario.node[2].nic.mac1609_4 txPower 20mW
attr unit mW
par Scenario.node[2].nic.mac1609_4 queueSize 0
par Scenario.node[2].nic.mac1609_4 dot11RTSThreshold 12000bit
attr unit bit
par Scenario.node[2].nic.mac1609_4 dot11ShortRetryLimit 7
par Scenario.node[2].nic.mac1609_4 dot11LongRetryLimit 4
par Scenario.node[2].nic.mac1609_4 ackLength 112bit
attr unit bit
par Scenario.node[2].nic.mac1609_4 useAcks false
par Scenario.node[2].nic.mac1609_4 frameErrorRate 0
par Scenario.node[2].nic.mac1609_4 ackErrorRate 0
scalar Scenario.node[2].nic.mac1609_4 ReceivedUnicastPackets 0
scalar Scenario.node[2].nic.mac1609_4 ReceivedBroadcasts 31
scalar Scenario.node[2].nic.mac1609_4 SentPackets 121
scalar Scenario.node[2].nic.mac1609_4 SentAcknowledgements 0
scalar Scenario.node[2].nic.mac1609_4 RetriesExceeded 0
scalar Scenario.node[2].nic.mac1609_4 SNIRLostPackets 0
scalar Scenario.node[2].nic.mac1609_4 RXTXLostPackets 0
scalar Scenario.node[2].nic.mac1609_4 TotalLostPackets 0
scalar Scenario.node[2].nic.mac1609_4 DroppedPacketsInMac 0
scalar Scenario.node[2].nic.mac1609_4 TooLittleTime 0
scalar Scenario.node[2].nic.mac1609_4 TimesIntoBackoff 121
scalar Scenario.node[2].nic.mac1609_4 SlotsBackoff 176
scalar Scenario.node[2].nic.mac1609_4 NumInternalContention 0
scalar Scenario.node[2].nic.mac1609_4 totalBusyTime 0.035385
scalar Scenario.node[2].nic.mac1609_4 retriesExceeded:count 0
attr moduledisplaypath "Scenario.electing CH src...nic.mac1609_4"
attr recordingmode count
attr source org_car2x_veins_modules_mac_sigRetriesExceeded
scalar Scenario.node[2].nic.mac1609_4 sentAcks:count 0
attr moduledisplaypath "Scenario.electing CH src...nic.mac1609_4"
attr recordingmode count
attr source org_car2x_veins_modules_mac_sigSentAck
scalar Scenario.node[2].nic.mac1609_4 sentPackets:count 121
attr moduledisplaypath "Scenario.electing CH src...nic.mac1609_4"
attr recordingmode count
attr source org_car2x_veins_modules_mac_sigSentPacket
scalar Scenario.node[2].nic.mac1609_4 collisions:count 0
attr moduledisplaypath "Scenario.electing CH src...nic.mac1609_4"
attr recordingmode count
attr source org_car2x_veins_modules_mac_sigCollision
scalar Scenario.node[2].nic.mac1609_4 channelBusy:timeavg 0.00019549723756906
attr moduledisplaypath "Scenario.electing CH src...nic.mac1609_4"
attr recordingmode timeavg
attr source org_car2x_veins_modules_mac_sigChannelBusy
par Scenario.node[2].nic typename "\"org.car2x.veins.modules.nic.Nic80211p\""
par Scenario.node[2].nic connectionManagerName "\"connectionManager\""
par Scenario.node[2].veinsmobility typename "\"org.car2x.veins.modules.mobility.traci.TraCIMobility\""
par Scenario.node[2].veinsmobility notAffectedByHostState true
par Scenario.node[2].veinsmobility x 0
par Scenario.node[2].veinsmobility y 0
par Scenario.node[2].veinsmobility z 0
par Scenario.node[2].veinsmobility xOrientation 1
par Scenario.node[2].veinsmobility yOrientation 0
par Scenario.node[2].veinsmobility zOrientation 0
par Scenario.node[2].veinsmobility hostPositionOffset 0m
attr unit m
par Scenario.node[2].veinsmobility setHostSpeed false
par Scenario.node[2].veinsmobility accidentCount 0
par Scenario.node[2].veinsmobility accidentStart 33.1772s
attr unit s
par Scenario.node[2].veinsmobility accidentDuration "uniform(30s, 60s)"
attr unit s
par Scenario.node[2].veinsmobility accidentInterval "uniform(30s, 60s)"
attr unit s
scalar Scenario.node[2].veinsmobility startTime 2
scalar Scenario.node[2].veinsmobility totalTime 180
scalar Scenario.node[2].veinsmobility stopTime 183
scalar Scenario.node[2].veinsmobility minSpeed 0
scalar Scenario.node[2].veinsmobility maxSpeed 28.415949859812
scalar Scenario.node[2].veinsmobility totalDistance 2005.5701195463
scalar Scenario.node[2].veinsmobility totalCO2Emission 751.61229235837
par Scenario.node[2] typename "\"org.car2x.veins.nodes.Car\""
par Scenario.node[2] applType "\"VehicleApplication\""
par Scenario.node[2] nicType "\"Nic80211p\""
par Scenario.node[2] veinsmobilityType "\"org.car2x.veins.modules.mobility.traci.TraCIMobility\""
par Scenario.node[9].appl typename "\"org.car2x.veins.subprojects.iov_sim.modules.applications.VehicleApplication\""
par Scenario.node[9].appl headerLength 80bit
attr unit bit
par Scenario.node[9].appl sendBeacons false
par Scenario.node[9].appl beaconLengthBits 256bit
attr unit bit
par Scenario.node[9].appl beaconUserPriority 7
par Scenario.node[9].appl beaconInterval 1s
attr unit s
par Scenario.node[9].appl dataLengthBits 1024bit
attr unit bit
par Scenario.node[9].appl dataOnSch false
par Scenario.node[9].appl dataUserPriority 7
par Scenario.node[9].appl avoidBeaconSynchronization true
par Scenario.node[9].appl sendWSA false
par Scenario.node[9].appl wsaLengthBits 250bit
attr unit bit
par Scenario.node[9].appl wsaInterval 1s
attr unit s
par Scenario.node[9].appl appName "\"Vehicle Application\""
par Scenario.node[9].appl clusterBeaconDelay 5
par Scenario.node[9].appl localStepsPerEpoch 5
par Scenario.node[9].appl neighborTableTimeout 30
par Scenario.node[9].appl clusterElectionTimeout 3
par Scenario.node[9].appl clusterHeadTimeout 3
par Scenario.node[9].appl connectivityThreshold 0.6
par Scenario.node[9].appl electionScoreThreshold 0.6
par Scenario.node[9].appl clusterScoreThreshold 0.6
scalar Scenario.node[9].appl generatedWSMs 122
scalar Scenario.node[9].appl receivedWSMs 0
scalar Scenario.node[9].appl generatedBSMs 0
scalar Scenario.node[9].appl receivedBSMs 0
scalar Scenario.node[9].appl generatedWSAs 0
scalar Scenario.node[9].appl receivedWSAs 0
scalar Scenario.node[9].appl sendPackets 2
scalar Scenario.node[9].appl rcvdPackets 0
scalar Scenario.node[9].appl avgPacketDelivery 0
scalar Scenario.node[9].appl avgPacketDelay 0
scalar Scenario.node[9].appl avgClusterLifetime 4.445142830319
scalar Scenario.node[9].appl lifetimeSpentInCluster 4.7288753514032
scalar Scenario.node[9].appl timeAlive 188
par Scenario.node[9].nic.phy80211p typename "\"org.car2x.veins.modules.phy.PhyLayer80211p\""
par Scenario.node[9].nic.phy80211p recordStats false
par Scenario.node[9].nic.phy80211p usePropagationDelay true
par Scenario.node[9].nic.phy80211p noiseFloor -98dBm
attr unit dBm
par Scenario.node[9].nic.phy80211p useNoiseFloor false
par Scenario.node[9].nic.phy80211p antenna "<Antenna type=\"SampledAntenna1D\" id=\"monopole\">...</Antenna> at /home/chandler/src/iov_sim/examples/iov_sim//antenna.xml:35"
par Scenario.node[9].nic.phy80211p antennaOffsetX 0m
attr unit m
par Scenario.node[9].nic.phy80211p antennaOffsetY 0m
attr unit m
par Scenario.node[9].nic.phy80211p antennaOffsetZ 1.895m
attr unit m
par Scenario.node[9].nic.phy80211p antennaOffsetYaw 0rad
attr unit rad
par Scenario.node[9].nic.phy80211p analogueModels "<root>...</root> at /home/chandler/src/iov_sim/examples/iov_sim//config.xml:34"
par Scenario.node[9].nic.phy80211p decider "<root>...</root> at /home/chandler/src/iov_sim/examples/iov_sim//config.xml:34"
par Scenario.node[9].nic.phy80211p minPowerLevel -110dBm
attr unit dBm
par Scenario.node[9].nic.phy80211p timeRXToTX 0s
attr unit s
par Scenario.node[9].nic.phy80211p timeRXToSleep 0s
attr unit s
par Scenario.node[9].nic.phy80211p timeTXToRX 0s
attr unit s
par Scenario.node[9].nic.phy80211p timeTXToSleep 0s
attr unit s
par Scenario.node[9].nic.phy80211p timeSleepToRX 0s
attr unit s
par Scenario.node[9].nic.phy80211p timeSleepToTX 0s
attr unit s
par Scenario.node[9].nic.phy80211p initialRadioState 0
par Scenario.node[9].nic.phy80211p radioMinAtt 1
par Scenario.node[9].nic.phy80211p radioMaxAtt 0
par Scenario.node[9].nic.phy80211p nbRadioChannels 1
par Scenario.node[9].nic.phy80211p initialRadioChannel 0
par Scenario.node[9].nic.phy80211p ccaThreshold -65dBm
attr unit dBm
par Scenario.node[9].nic.phy80211p collectCollisionStatistics false
par Scenario.node[9].nic.phy80211p allowTxDuringRx false
scalar Scenario.node[9].nic.phy80211p busyTime 0.00012463829787234
par Scenario.node[9].nic.mac1609_4 typename "\"org.car2x.veins.modules.mac.ieee80211p.Mac1609_4\""
par Scenario.node[9].nic.mac1609_4 notAffectedByHostState false
par Scenario.node[9].nic.mac1609_4 headerLength 0bit
attr unit bit
par Scenario.node[9].nic.mac1609_4 address "\"auto\""
par Scenario.node[9].nic.mac1609_4 useServiceChannel false
par Scenario.node[9].nic.mac1609_4 serviceChannel 1
par Scenario.node[9].nic.mac1609_4 bitrate 6000000bps
attr unit bps
par Scenario.node[9].nic.mac1609_4 syncOffset 0.0003s
attr unit s
par Scenario.node[9].nic.mac1609_4 txPower 20mW
attr unit mW
par Scenario.node[9].nic.mac1609_4 queueSize 0
par Scenario.node[9].nic.mac1609_4 dot11RTSThreshold 12000bit
attr unit bit
par Scenario.node[9].nic.mac1609_4 dot11ShortRetryLimit 7
par Scenario.node[9].nic.mac1609_4 dot11LongRetryLimit 4
par Scenario.node[9].nic.mac1609_4 ackLength 112bit
attr unit bit
par Scenario.node[9].nic.mac1609_4 useAcks false
par Scenario.node[9].nic.mac1609_4 frameErrorRate 0
par Scenario.node[9].nic.mac1609_4 ackErrorRate 0
scalar Scenario.node[9].nic.mac1609_4 ReceivedUnicastPackets 0
scalar Scenario.node[9].nic.mac1609_4 ReceivedBroadcasts 99
scalar Scenario.node[9].nic.mac1609_4 SentPackets 122
scalar Scenario.node[9].nic.mac1609_4 SentAcknowledgements 0
scalar Scenario.node[9].nic.mac1609_4 RetriesExceeded 0
scalar Scenario.node[9].nic.mac1609_4 SNIRLostPackets 2
scalar Scenario.node[9].nic.mac1609_4 RXTXLostPackets 7
scalar Scenario.node[9].nic.mac1609_4 TotalLostPackets 9
scalar Scenario.node[9].nic.mac1609_4 DroppedPacketsInMac 0
scalar Scenario.node[9].nic.mac1609_4 TooLittleTime 0
scalar Scenario.node[9].nic.mac1609_4 TimesIntoBackoff 122
scalar Scenario.node[9].nic.mac1609_4 SlotsBackoff 182
scalar Scenario.node[9].nic.mac1609_4 NumInternalContention 0
scalar Scenario.node[9].nic.mac1609_4 totalBusyTime 0.051394
scalar Scenario.node[9].nic.mac1609_4 retriesExceeded:count 0
attr moduledisplaypath "Scenario.electing CH. src: node[19].nic.mac1609_4"
attr recordingmode count
attr source org_car2x_veins_modules_mac_sigRetriesExceeded
scalar Scenario.node[9].nic.mac1609_4 sentAcks:count 0
attr moduledisplaypath "Scenario.electing CH. src: node[19].nic.mac1609_4"
attr recordingmode count
attr source org_car2x_veins_modules_mac_sigSentAck
scalar Scenario.node[9].nic.mac1609_4 sentPackets:count 122
attr moduledisplaypath "Scenario.electing CH. src: node[19].nic.mac1609_4"
attr recordingmode count
attr source org_car2x_veins_modules_mac_sigSentPacket
scalar Scenario.node[9].nic.mac1609_4 collisions:count 0
attr moduledisplaypath "Scenario.electing CH. src: node[19].nic.mac1609_4"
attr recordingmode count
attr source org_car2x_veins_modules_mac_sigCollision
scalar Scenario.node[9].nic.mac1609_4 channelBusy:timeavg 0.00027337234042553
attr moduledisplaypath "Scenario.electing CH. src: node[19].nic.mac1609_4"
attr recordingmode timeavg
attr source org_car2x_veins_modules_mac_sigChannelBusy
par Scenario.node[9].nic typename "\"org.car2x.veins.modules.nic.Nic80211p\""
par Scenario.node[9].nic connectionManagerName "\"connectionManager\""
par Scenario.node[9].veinsmobility typename "\"org.car2x.veins.modules.mobility.traci.TraCIMobility\""
par Scenario.node[9].veinsmobility notAffectedByHostState true
par Scenario.node[9].veinsmobility x 0
par Scenario.node[9].veinsmobility y 0
par Scenario.node[9].veinsmobility z 0
par Scenario.node[9].veinsmobility xOrientation 1
par Scenario.node[9].veinsmobility yOrientation 0
par Scenario.node[9].veinsmobility zOrientation 0
par Scenario.node[9].veinsmobility hostPositionOffset 0m
attr unit m
par Scenario.node[9].veinsmobility setHostSpeed false
par Scenario.node[9].veinsmobility accidentCount 0
par Scenario.node[9].veinsmobility accidentStart 50.2098s
attr unit s
par Scenario.node[9].veinsmobility accidentDuration "uniform(30s, 60s)"
attr unit s
par Scenario.node[9].veinsmobility accidentInterval "uniform(30s, 60s)"
attr unit s
scalar Scenario.node[9].veinsmobility startTime 5
scalar Scenario.node[9].veinsmobility totalTime 187
scalar Scenario.node[9].veinsmobility stopTime 193
scalar Scenario.node[9].veinsmobility minSpeed 0
scalar Scenario.node[9].veinsmobility maxSpeed 35.208479334401
scalar Scenario.node[9].veinsmobility totalDistance 2386.3996055685
scalar Scenario.node[9].veinsmobility totalCO2Emission 1082.2842415724
par Scenario.node[9] typename "\"org.car2x.veins.nodes.Car\""
par Scenario.node[9] applType "\"VehicleApplication\""
par Scenario.node[9] nicType "\"Nic80211p\""
par Scenario.node[9] veinsmobilityType "\"org.car2x.veins.modules.mobility.traci.TraCIMobility\""
par Scenario.obstacles typename "\"org.car2x.veins.modules.obstacle.ObstacleControl\""
par Scenario.obstacles obstacles "<obstacles>...</obstacles> at /home/chandler/src/iov_sim/examples/iov_sim//config.xml:40"
par Scenario.obstacles gridCellSize 250
par Scenario.annotations typename "\"org.car2x.veins.modules.world.annotations.AnnotationManager\""
par Scenario.annotations draw true
par Scenario.annotations annotations "<annotations/> at content:1"
par Scenario.connectionManager typename "\"org.car2x.veins.base.connectionManager.ConnectionManager\""
par Scenario.connectionManager sendDirect true
par Scenario.connectionManager maxInterfDist 2600m
attr unit m
par Scenario.connectionManager drawMaxIntfDist false
par Scenario.world typename "\"org.car2x.veins.base.modules.BaseWorldUtility\""
par Scenario.world playgroundSizeX 12500m
attr unit m
par Scenario.world playgroundSizeY 7500m
attr unit m
par Scenario.world playgroundSizeZ 50m
attr unit m
par Scenario.world useTorus false
par Scenario.world use2D false
par Scenario.manager typename "\"org.car2x.veins.modules.mobility.traci.TraCIScenarioManagerLaunchd\""
par Scenario.manager connectAt 0s
attr unit s
par Scenario.manager firstStepAt -1s
attr unit s
par Scenario.manager updateInterval 1s
attr unit s
par Scenario.manager moduleType "\"org.car2x.veins.nodes.Car\""
par Scenario.manager moduleName "\"node\""
par Scenario.manager moduleDisplayString "\"*='i=veins/node/car;is=vs'\""
par Scenario.manager trafficLightModuleType "\"\""
par Scenario.manager trafficLightModuleName "\"tls\""
par Scenario.manager trafficLightFilter "\"\""
par Scenario.manager trafficLightModuleDisplayString "\"i=misc/node2;is=vs;r=0,,#707070,1\""
par Scenario.manager host "\"localhost\""
par Scenario.manager port 9999
par Scenario.manager seed -1
par Scenario.manager autoShutdown true
par Scenario.manager margin 25
par Scenario.manager roiRoads "\"\""
par Scenario.manager roiRects "\"\""
par Scenario.manager penetrationRate 1
par Scenario.manager ignoreGuiCommands false
par Scenario.manager launchConfig "<launch>...</launch> at /home/chandler/src/iov_sim/examples/iov_sim//sumo.launchd.xml:2"
scalar Scenario.manager roiArea 0
par Scenario.roadsCanvasVisualizer typename "\"org.car2x.veins.visualizer.roads.RoadsCanvasVisualizer\""
par Scenario.roadsCanvasVisualizer enabled true
par Scenario.roadsCanvasVisualizer lineZIndex -1
par Scenario.roadsCanvasVisualizer lineColor "\"firebrick4\""
par Scenario.roadsCanvasVisualizer lineWidth 1
par Scenario.roadsCanvasVisualizer lineWidthZoom false
par Scenario.MySimulationModule typename "\"org.car2x.veins.subprojects.iov_sim.base.python.PythonLifecycle\""
par Scenario.node[1].appl typename "\"org.car2x.veins.subprojects.iov_sim.modules.applications.VehicleApplication\""
par Scenario.node[1].appl headerLength 80bit
attr unit bit
par Scenario.node[1].appl sendBeacons false
par Scenario.node[1].appl beaconLengthBits 256bit
attr unit bit
par Scenario.node[1].appl beaconUserPriority 7
par Scenario.node[1].appl beaconInterval 1s
attr unit s
par Scenario.node[1].appl dataLengthBits 1024bit
attr unit bit
par Scenario.node[1].appl dataOnSch false
par Scenario.node[1].appl dataUserPriority 7
par Scenario.node[1].appl avoidBeaconSynchronization true
par Scenario.node[1].appl sendWSA false
par Scenario.node[1].appl wsaLengthBits 250bit
attr unit bit
par Scenario.node[1].appl wsaInterval 1s
attr unit s
par Scenario.node[1].appl appName "\"Vehicle Application\""
par Scenario.node[1].appl clusterBeaconDelay 5
par Scenario.node[1].appl localStepsPerEpoch 5
par Scenario.node[1].appl neighborTableTimeout 30
par Scenario.node[1].appl clusterElectionTimeout 3
par Scenario.node[1].appl clusterHeadTimeout 3
par Scenario.node[1].appl connectivityThreshold 0.6
par Scenario.node[1].appl electionScoreThreshold 0.6
par Scenario.node[1].appl clusterScoreThreshold 0.6
scalar Scenario.node[1].appl generatedWSMs 115
scalar Scenario.node[1].appl receivedWSMs 0
scalar Scenario.node[1].appl generatedBSMs 0
scalar Scenario.node[1].appl receivedBSMs 0
scalar Scenario.node[1].appl generatedWSAs 0
scalar Scenario.node[1].appl receivedWSAs 0
scalar Scenario.node[1].appl sendPackets 4
scalar Scenario.node[1].appl rcvdPackets 0
scalar Scenario.node[1].appl avgPacketDelivery 0
scalar Scenario.node[1].appl avgPacketDelay 0
scalar Scenario.node[1].appl avgClusterLifetime 4.760359786968
scalar Scenario.node[1].appl lifetimeSpentInCluster 9.6515079722544
scalar Scenario.node[1].appl timeAlive 197.2897831366
par Scenario.node[1].nic.phy80211p typename "\"org.car2x.veins.modules.phy.PhyLayer80211p\""
par Scenario.node[1].nic.phy80211p recordStats false
par Scenario.node[1].nic.phy80211p usePropagationDelay true
par Scenario.node[1].nic.phy80211p noiseFloor -98dBm
attr unit dBm
par Scenario.node[1].nic.phy80211p useNoiseFloor false
par Scenario.node[1].nic.phy80211p antenna "<Antenna type=\"SampledAntenna1D\" id=\"monopole\">...</Antenna> at /home/chandler/src/iov_sim/examples/iov_sim//antenna.xml:35"
par Scenario.node[1].nic.phy80211p antennaOffsetX 0m
attr unit m
par Scenario.node[1].nic.phy80211p antennaOffsetY 0m
attr unit m
par Scenario.node[1].nic.phy80211p antennaOffsetZ 1.895m
attr unit m
par Scenario.node[1].nic.phy80211p antennaOffsetYaw 0rad
attr unit rad
par Scenario.node[1].nic.phy80211p analogueModels "<root>...</root> at /home/chandler/src/iov_sim/examples/iov_sim//config.xml:34"
par Scenario.node[1].nic.phy80211p decider "<root>...</root> at /home/chandler/src/iov_sim/examples/iov_sim//config.xml:34"
par Scenario.node[1].nic.phy80211p minPowerLevel -110dBm
attr unit dBm
par Scenario.node[1].nic.phy80211p timeRXToTX 0s
attr unit s
par Scenario.node[1].nic.phy80211p timeRXToSleep 0s
attr unit s
par Scenario.node[1].nic.phy80211p timeTXToRX 0s
attr unit s
par Scenario.node[1].nic.phy80211p timeTXToSleep 0s
attr unit s
par Scenario.node[1].nic.phy80211p timeSleepToRX 0s
attr unit s
par Scenario.node[1].nic.phy80211p timeSleepToTX 0s
attr unit s
par Scenario.node[1].nic.phy80211p initialRadioState 0
par Scenario.node[1].nic.phy80211p radioMinAtt 1
par Scenario.node[1].nic.phy80211p radioMaxAtt 0
par Scenario.node[1].nic.phy80211p nbRadioChannels 1
par Scenario.node[1].nic.phy80211p initialRadioChannel 0
par Scenario.node[1].nic.phy80211p ccaThreshold -65dBm
attr unit dBm
par Scenario.node[1].nic.phy80211p collectCollisionStatistics false
par Scenario.node[1].nic.phy80211p allowTxDuringRx false
scalar Scenario.node[1].nic.phy80211p busyTime 6.7028306229341e-05
par Scenario.node[1].nic.mac1609_4 typename "\"org.car2x.veins.modules.mac.ieee80211p.Mac1609_4\""
par Scenario.node[1].nic.mac1609_4 notAffectedByHostState false
par Scenario.node[1].nic.mac1609_4 headerLength 0bit
attr unit bit
par Scenario.node[1].nic.mac1609_4 address "\"auto\""
par Scenario.node[1].nic.mac1609_4 useServiceChannel false
par Scenario.node[1].nic.mac1609_4 serviceChannel 1
par Scenario.node[1].nic.mac1609_4 bitrate 6000000bps
attr unit bps
par Scenario.node[1].nic.mac1609_4 syncOffset 0.0003s
attr unit s
par Scenario.node[1].nic.mac1609_4 txPower 20mW
attr unit mW
par Scenario.node[1].nic.mac1609_4 queueSize 0
par Scenario.node[1].nic.mac1609_4 dot11RTSThreshold 12000bit
attr unit bit
par Scenario.node[1].nic.mac1609_4 dot11ShortRetryLimit 7
par Scenario.node[1].nic.mac1609_4 dot11LongRetryLimit 4
par Scenario.node[1].nic.mac1609_4 ackLength 112bit
attr unit bit
par Scenario.node[1].nic.mac1609_4 useAcks false
par Scenario.node[1].nic.mac1609_4 frameErrorRate 0
par Scenario.node[1].nic.mac1609_4 ackErrorRate 0
scalar Scenario.node[1].nic.mac1609_4 ReceivedUnicastPackets 0
scalar Scenario.node[1].nic.mac1609_4 ReceivedBroadcasts 53
scalar Scenario.node[1].nic.mac1609_4 SentPackets 115
scalar Scenario.node[1].nic.mac1609_4 SentAcknowledgements 0
scalar Scenario.node[1].nic.mac1609_4 RetriesExceeded 0
scalar Scenario.node[1].nic.mac1609_4 SNIRLostPackets 4
scalar Scenario.node[1].nic.mac1609_4 RXTXLostPackets 0
scalar Scenario.node[1].nic.mac1609_4 TotalLostPackets 4
scalar Scenario.node[1].nic.mac1609_4 DroppedPacketsInMac 0
scalar Scenario.node[1].nic.mac1609_4 TooLittleTime 0
scalar Scenario.node[1].nic.mac1609_4 TimesIntoBackoff 115
scalar Scenario.node[1].nic.mac1609_4 SlotsBackoff 165
scalar Scenario.node[1].nic.mac1609_4 NumInternalContention 0
scalar Scenario.node[1].nic.mac1609_4 totalBusyTime 0.039091
scalar Scenario.node[1].nic.mac1609_4 retriesExceeded:count 0
attr moduledisplaypath "Scenario.electing CH src...nic.mac1609_4"
attr recordingmode count
attr source org_car2x_veins_modules_mac_sigRetriesExceeded
scalar Scenario.node[1].nic.mac1609_4 sentAcks:count 0
attr moduledisplaypath "Scenario.electing CH src...nic.mac1609_4"
attr recordingmode count
attr source org_car2x_veins_modules_mac_sigSentAck
scalar Scenario.node[1].nic.mac1609_4 sentPackets:count 115
attr moduledisplaypath "Scenario.electing CH src...nic.mac1609_4"
attr recordingmode count
attr source org_car2x_veins_modules_mac_sigSentPacket
scalar Scenario.node[1].nic.mac1609_4 collisions:count 0
attr moduledisplaypath "Scenario.electing CH src...nic.mac1609_4"
attr recordingmode count
attr source org_car2x_veins_modules_mac_sigCollision
scalar Scenario.node[1].nic.mac1609_4 channelBusy:timeavg 0.00019814001200931
attr moduledisplaypath "Scenario.electing CH src...nic.mac1609_4"
attr recordingmode timeavg
attr source org_car2x_veins_modules_mac_sigChannelBusy
par Scenario.node[1].nic typename "\"org.car2x.veins.modules.nic.Nic80211p\""
par Scenario.node[1].nic connectionManagerName "\"connectionManager\""
par Scenario.node[1].veinsmobility typename "\"org.car2x.veins.modules.mobility.traci.TraCIMobility\""
par Scenario.node[1].veinsmobility notAffectedByHostState true
par Scenario.node[1].veinsmobility x 0
par Scenario.node[1].veinsmobility y 0
par Scenario.node[1].veinsmobility z 0
par Scenario.node[1].veinsmobility xOrientation 1
par Scenario.node[1].veinsmobility yOrientation 0
par Scenario.node[1].veinsmobility zOrientation 0
par Scenario.node[1].veinsmobility hostPositionOffset 0m
attr unit m
par Scenario.node[1].veinsmobility setHostSpeed false
par Scenario.node[1].veinsmobility accidentCount 0
par Scenario.node[1].veinsmobility accidentStart 34.3006s
attr unit s
par Scenario.node[1].veinsmobility accidentDuration "uniform(30s, 60s)"
attr unit s
par Scenario.node[1].veinsmobility accidentInterval "uniform(30s, 60s)"
attr unit s
scalar Scenario.node[1].veinsmobility startTime 2
scalar Scenario.node[1].veinsmobility totalTime 197
scalar Scenario.node[1].veinsmobility stopTime 199.2897831366
scalar Scenario.node[1].veinsmobility minSpeed 0
scalar Scenario.node[1].veinsmobility maxSpeed 29.098268081143
scalar Scenario.node[1].veinsmobility totalDistance 3715.2792931803
scalar Scenario.node[1].veinsmobility totalCO2Emission 993.2696581595
par Scenario.node[1] typename "\"org.car2x.veins.nodes.Car\""
par Scenario.node[1] applType "\"VehicleApplication\""
par Scenario.node[1] nicType "\"Nic80211p\""
par Scenario.node[1] veinsmobilityType "\"org.car2x.veins.modules.mobility.traci.TraCIMobility\""
par Scenario.node[3].appl typename "\"org.car2x.veins.subprojects.iov_sim.modules.applications.VehicleApplication\""
par Scenario.node[3].appl headerLength 80bit
attr unit bit
par Scenario.node[3].appl sendBeacons false
par Scenario.node[3].appl beaconLengthBits 256bit
attr unit bit
par Scenario.node[3].appl beaconUserPriority 7
par Scenario.node[3].appl beaconInterval 1s
attr unit s
par Scenario.node[3].appl dataLengthBits 1024bit
attr unit bit
par Scenario.node[3].appl dataOnSch false
par Scenario.node[3].appl dataUserPriority 7
par Scenario.node[3].appl avoidBeaconSynchronization true
par Scenario.node[3].appl sendWSA false
par Scenario.node[3].appl wsaLengthBits 250bit
attr unit bit
par Scenario.node[3].appl wsaInterval 1s
attr unit s
par Scenario.node[3].appl appName "\"Vehicle Application\""
par Scenario.node[3].appl clusterBeaconDelay 5
par Scenario.node[3].appl localStepsPerEpoch 5
par Scenario.node[3].appl neighborTableTimeout 30
par Scenario.node[3].appl clusterElectionTimeout 3
par Scenario.node[3].appl clusterHeadTimeout 3
par Scenario.node[3].appl connectivityThreshold 0.6
par Scenario.node[3].appl electionScoreThreshold 0.6
par Scenario.node[3].appl clusterScoreThreshold 0.6
scalar Scenario.node[3].appl generatedWSMs 115
scalar Scenario.node[3].appl receivedWSMs 0
scalar Scenario.node[3].appl generatedBSMs 0
scalar Scenario.node[3].appl receivedBSMs 0
scalar Scenario.node[3].appl generatedWSAs 0
scalar Scenario.node[3].appl receivedWSAs 0
scalar Scenario.node[3].appl sendPackets 7
scalar Scenario.node[3].appl rcvdPackets 1
scalar Scenario.node[3].appl avgPacketDelivery 14.285714285714
scalar Scenario.node[3].appl avgPacketDelay 0.30789493899874
scalar Scenario.node[3].appl avgClusterLifetime 4.5301572653133
scalar Scenario.node[3].appl lifetimeSpentInCluster 20.771032876147
scalar Scenario.node[3].appl timeAlive 196.2897831366
par Scenario.node[3].nic.phy80211p typename "\"org.car2x.veins.modules.phy.PhyLayer80211p\""
par Scenario.node[3].nic.phy80211p recordStats false
par Scenario.node[3].nic.phy80211p usePropagationDelay true
par Scenario.node[3].nic.phy80211p noiseFloor -98dBm
attr unit dBm
par Scenario.node[3].nic.phy80211p useNoiseFloor false
par Scenario.node[3].nic.phy80211p antenna "<Antenna type=\"SampledAntenna1D\" id=\"monopole\">...</Antenna> at /home/chandler/src/iov_sim/examples/iov_sim//antenna.xml:35"
par Scenario.node[3].nic.phy80211p antennaOffsetX 0m
attr unit m
par Scenario.node[3].nic.phy80211p antennaOffsetY 0m
attr unit m
par Scenario.node[3].nic.phy80211p antennaOffsetZ 1.895m
attr unit m
par Scenario.node[3].nic.phy80211p antennaOffsetYaw 0rad
attr unit rad
par Scenario.node[3].nic.phy80211p analogueModels "<root>...</root> at /home/chandler/src/iov_sim/examples/iov_sim//config.xml:34"
par Scenario.node[3].nic.phy80211p decider "<root>...</root> at /home/chandler/src/iov_sim/examples/iov_sim//config.xml:34"
par Scenario.node[3].nic.phy80211p minPowerLevel -110dBm
attr unit dBm
par Scenario.node[3].nic.phy80211p timeRXToTX 0s
attr unit s
par Scenario.node[3].nic.phy80211p timeRXToSleep 0s
attr unit s
par Scenario.node[3].nic.phy80211p timeTXToRX 0s
attr unit s
par Scenario.node[3].nic.phy80211p timeTXToSleep 0s
attr unit s
par Scenario.node[3].nic.phy80211p timeSleepToRX 0s
attr unit s
par Scenario.node[3].nic.phy80211p timeSleepToTX 0s
attr unit s
par Scenario.node[3].nic.phy80211p initialRadioState 0
par Scenario.node[3].nic.phy80211p radioMinAtt 1
par Scenario.node[3].nic.phy80211p radioMaxAtt 0
par Scenario.node[3].nic.phy80211p nbRadioChannels 1
par Scenario.node[3].nic.phy80211p initialRadioChannel 0
par Scenario.node[3].nic.phy80211p ccaThreshold -65dBm
attr unit dBm
par Scenario.node[3].nic.phy80211p collectCollisionStatistics false
par Scenario.node[3].nic.phy80211p allowTxDuringRx false
scalar Scenario.node[3].nic.phy80211p busyTime 0.00039003558298662
par Scenario.node[3].nic.mac1609_4 typename "\"org.car2x.veins.modules.mac.ieee80211p.Mac1609_4\""
par Scenario.node[3].nic.mac1609_4 notAffectedByHostState false
par Scenario.node[3].nic.mac1609_4 headerLength 0bit
attr unit bit
par Scenario.node[3].nic.mac1609_4 address "\"auto\""
par Scenario.node[3].nic.mac1609_4 useServiceChannel false
par Scenario.node[3].nic.mac1609_4 serviceChannel 1
par Scenario.node[3].nic.mac1609_4 bitrate 6000000bps
attr unit bps
par Scenario.node[3].nic.mac1609_4 syncOffset 0.0003s
attr unit s
par Scenario.node[3].nic.mac1609_4 txPower 20mW
attr unit mW
par Scenario.node[3].nic.mac1609_4 queueSize 0
par Scenario.node[3].nic.mac1609_4 dot11RTSThreshold 12000bit
attr unit bit
par Scenario.node[3].nic.mac1609_4 dot11ShortRetryLimit 7
par Scenario.node[3].nic.mac1609_4 dot11LongRetryLimit 4
par Scenario.node[3].nic.mac1609_4 ackLength 112bit
attr unit bit
par Scenario.node[3].nic.mac1609_4 useAcks false
par Scenario.node[3].nic.mac1609_4 frameErrorRate 0
par Scenario.node[3].nic.mac1609_4 ackErrorRate 0
scalar Scenario.node[3].nic.mac1609_4 ReceivedUnicastPackets 0
scalar Scenario.node[3].nic.mac1609_4 ReceivedBroadcasts 307
scalar Scenario.node[3].nic.mac1609_4 SentPackets 115
scalar Scenario.node[3].nic.mac1609_4 SentAcknowledgements 0
scalar Scenario.node[3].nic.mac1609_4 RetriesExceeded 0
scalar Scenario.node[3].nic.mac1609_4 SNIRLostPackets 23
scalar Scenario.node[3].nic.mac1609_4 RXTXLostPackets 17
scalar Scenario.node[3].nic.mac1609_4 TotalLostPackets 40
scalar Scenario.node[3].nic.mac1609_4 DroppedPacketsInMac 0
scalar Scenario.node[3].nic.mac1609_4 TooLittleTime 0
scalar Scenario.node[3].nic.mac1609_4 TimesIntoBackoff 115
scalar Scenario.node[3].nic.mac1609_4 SlotsBackoff 161
scalar Scenario.node[3].nic.mac1609_4 NumInternalContention 0
scalar Scenario.node[3].nic.mac1609_4 totalBusyTime 0.100107000544
scalar Scenario.node[3].nic.mac1609_4 retriesExceeded:count 0
attr moduledisplaypath "Scenario.node[3]'s CH.nic.mac1609_4"
attr recordingmode count
attr source org_car2x_veins_modules_mac_sigRetriesExceeded
scalar Scenario.node[3].nic.mac1609_4 sentAcks:count 0
attr moduledisplaypath "Scenario.node[3]'s CH.nic.mac1609_4"
attr recordingmode count
attr source org_car2x_veins_modules_mac_sigSentAck
scalar Scenario.node[3].nic.mac1609_4 sentPackets:count 115
attr moduledisplaypath "Scenario.node[3]'s CH.nic.mac1609_4"
attr recordingmode count
attr source org_car2x_veins_modules_mac_sigSentPacket
scalar Scenario.node[3].nic.mac1609_4 collisions:count 0
attr moduledisplaypath "Scenario.node[3]'s CH.nic.mac1609_4"
attr recordingmode count
attr source org_car2x_veins_modules_mac_sigCollision
scalar Scenario.node[3].nic.mac1609_4 channelBusy:timeavg 0.00050999598116799
attr moduledisplaypath "Scenario.node[3]'s CH.nic.mac1609_4"
attr recordingmode timeavg
attr source org_car2x_veins_modules_mac_sigChannelBusy
par Scenario.node[3].nic typename "\"org.car2x.veins.modules.nic.Nic80211p\""
par Scenario.node[3].nic connectionManagerName "\"connectionManager\""
par Scenario.node[3].veinsmobility typename "\"org.car2x.veins.modules.mobility.traci.TraCIMobility\""
par Scenario.node[3].veinsmobility notAffectedByHostState true
par Scenario.node[3].veinsmobility x 0
par Scenario.node[3].veinsmobility y 0
par Scenario.node[3].veinsmobility z 0
par Scenario.node[3].veinsmobility xOrientation 1
par Scenario.node[3].veinsmobility yOrientation 0
par Scenario.node[3].veinsmobility zOrientation 0
par Scenario.node[3].veinsmobility hostPositionOffset 0m
attr unit m
par Scenario.node[3].veinsmobility setHostSpeed false
par Scenario.node[3].veinsmobility accidentCount 0
par Scenario.node[3].veinsmobility accidentStart 43.4985s
attr unit s
par Scenario.node[3].veinsmobility accidentDuration "uniform(30s, 60s)"
attr unit s
par Scenario.node[3].veinsmobility accidentInterval "uniform(30s, 60s)"
attr unit s
scalar Scenario.node[3].veinsmobility startTime 3
scalar Scenario.node[3].veinsmobility totalTime 196
scalar Scenario.node[3].veinsmobility stopTime 199.2897831366
scalar Scenario.node[3].veinsmobility minSpeed 0
scalar Scenario.node[3].veinsmobility maxSpeed 28.204021605865
scalar Scenario.node[3].veinsmobility totalDistance 2379.3129828576
scalar Scenario.node[3].veinsmobility totalCO2Emission 741.82821103327
par Scenario.node[3] typename "\"org.car2x.veins.nodes.Car\""
par Scenario.node[3] applType "\"VehicleApplication\""
par Scenario.node[3] nicType "\"Nic80211p\""
par Scenario.node[3] veinsmobilityType "\"org.car2x.veins.modules.mobility.traci.TraCIMobility\""
par Scenario.node[4].appl typename "\"org.car2x.veins.subprojects.iov_sim.modules.applications.VehicleApplication\""
par Scenario.node[4].appl headerLength 80bit
attr unit bit
par Scenario.node[4].appl sendBeacons false
par Scenario.node[4].appl beaconLengthBits 256bit
attr unit bit
par Scenario.node[4].appl beaconUserPriority 7
par Scenario.node[4].appl beaconInterval 1s
attr unit s
par Scenario.node[4].appl dataLengthBits 1024bit
attr unit bit
par Scenario.node[4].appl dataOnSch false
par Scenario.node[4].appl dataUserPriority 7
par Scenario.node[4].appl avoidBeaconSynchronization true
par Scenario.node[4].appl sendWSA false
par Scenario.node[4].appl wsaLengthBits 250bit
attr unit bit
par Scenario.node[4].appl wsaInterval 1s
attr unit s
par Scenario.node[4].appl appName "\"Vehicle Application\""
par Scenario.node[4].appl clusterBeaconDelay 5
par Scenario.node[4].appl localStepsPerEpoch 5
par Scenario.node[4].appl neighborTableTimeout 30
par Scenario.node[4].appl clusterElectionTimeout 3
par Scenario.node[4].appl clusterHeadTimeout 3
par Scenario.node[4].appl connectivityThreshold 0.6
par Scenario.node[4].appl electionScoreThreshold 0.6
par Scenario.node[4].appl clusterScoreThreshold 0.6
scalar Scenario.node[4].appl generatedWSMs 90
scalar Scenario.node[4].appl receivedWSMs 0
scalar Scenario.node[4].appl generatedBSMs 0
scalar Scenario.node[4].appl receivedBSMs 0
scalar Scenario.node[4].appl generatedWSAs 0
scalar Scenario.node[4].appl receivedWSAs 0
scalar Scenario.node[4].appl sendPackets 8
scalar Scenario.node[4].appl rcvdPackets 3
scalar Scenario.node[4].appl avgPacketDelivery 37.5
scalar Scenario.node[4].appl avgPacketDelay 0.29311021000211
scalar Scenario.node[4].appl avgClusterLifetime 9.1152554305195
scalar Scenario.node[4].appl lifetimeSpentInCluster 9.2875495452316
scalar Scenario.node[4].appl timeAlive 196.2897831366
par Scenario.node[4].nic.phy80211p typename "\"org.car2x.veins.modules.phy.PhyLayer80211p\""
par Scenario.node[4].nic.phy80211p recordStats false
par Scenario.node[4].nic.phy80211p usePropagationDelay true
par Scenario.node[4].nic.phy80211p noiseFloor -98dBm
attr unit dBm
par Scenario.node[4].nic.phy80211p useNoiseFloor false
par Scenario.node[4].nic.phy80211p antenna "<Antenna type=\"SampledAntenna1D\" id=\"monopole\">...</Antenna> at /home/chandler/src/iov_sim/examples/iov_sim//antenna.xml:35"
par Scenario.node[4].nic.phy80211p antennaOffsetX 0m
attr unit m
par Scenario.node[4].nic.phy80211p antennaOffsetY 0m
attr unit m
par Scenario.node[4].nic.phy80211p antennaOffsetZ 1.895m
attr unit m
par Scenario.node[4].nic.phy80211p antennaOffsetYaw 0rad
attr unit rad
par Scenario.node[4].nic.phy80211p analogueModels "<root>...</root> at /home/chandler/src/iov_sim/examples/iov_sim//config.xml:34"
par Scenario.node[4].nic.phy80211p decider "<root>...</root> at /home/chandler/src/iov_sim/examples/iov_sim//config.xml:34"
par Scenario.node[4].nic.phy80211p minPowerLevel -110dBm
attr unit dBm
par Scenario.node[4].nic.phy80211p timeRXToTX 0s
attr unit s
par Scenario.node[4].nic.phy80211p timeRXToSleep 0s
attr unit s
par Scenario.node[4].nic.phy80211p timeTXToRX 0s
attr unit s
par Scenario.node[4].nic.phy80211p timeTXToSleep 0s
attr unit s
par Scenario.node[4].nic.phy80211p timeSleepToRX 0s
attr unit s
par Scenario.node[4].nic.phy80211p timeSleepToTX 0s
attr unit s
par Scenario.node[4].nic.phy80211p initialRadioState 0
par Scenario.node[4].nic.phy80211p radioMinAtt 1
par Scenario.node[4].nic.phy80211p radioMaxAtt 0
par Scenario.node[4].nic.phy80211p nbRadioChannels 1
par Scenario.node[4].nic.phy80211p initialRadioChannel 0
par Scenario.node[4].nic.phy80211p ccaThreshold -65dBm
attr unit dBm
par Scenario.node[4].nic.phy80211p collectCollisionStatistics false
par Scenario.node[4].nic.phy80211p allowTxDuringRx false
scalar Scenario.node[4].nic.phy80211p busyTime 0.00021038282961097
par Scenario.node[4].nic.mac1609_4 typename "\"org.car2x.veins.modules.mac.ieee80211p.Mac1609_4\""
par Scenario.node[4].nic.mac1609_4 notAffectedByHostState false
par Scenario.node[4].nic.mac1609_4 headerLength 0bit
attr unit bit
par Scenario.node[4].nic.mac1609_4 address "\"auto\""
par Scenario.node[4].nic.mac1609_4 useServiceChannel false
par Scenario.node[4].nic.mac1609_4 serviceChannel 1
par Scenario.node[4].nic.mac1609_4 bitrate 6000000bps
attr unit bps
par Scenario.node[4].nic.mac1609_4 syncOffset 0.0003s
attr unit s
par Scenario.node[4].nic.mac1609_4 txPower 20mW
attr unit mW
par Scenario.node[4].nic.mac1609_4 queueSize 0
par Scenario.node[4].nic.mac1609_4 dot11RTSThreshold 12000bit
attr unit bit
par Scenario.node[4].nic.mac1609_4 dot11ShortRetryLimit 7
par Scenario.node[4].nic.mac1609_4 dot11LongRetryLimit 4
par Scenario.node[4].nic.mac1609_4 ackLength 112bit
attr unit bit
par Scenario.node[4].nic.mac1609_4 useAcks false
par Scenario.node[4].nic.mac1609_4 frameErrorRate 0
par Scenario.node[4].nic.mac1609_4 ackErrorRate 0
scalar Scenario.node[4].nic.mac1609_4 ReceivedUnicastPackets 0
scalar Scenario.node[4].nic.mac1609_4 ReceivedBroadcasts 172
scalar Scenario.node[4].nic.mac1609_4 SentPackets 90
scalar Scenario.node[4].nic.mac1609_4 SentAcknowledgements 0
scalar Scenario.node[4].nic.mac1609_4 RetriesExceeded 0
scalar Scenario.node[4].nic.mac1609_4 SNIRLostPackets 6
scalar Scenario.node[4].nic.mac1609_4 RXTXLostPackets 0
scalar Scenario.node[4].nic.mac1609_4 TotalLostPackets 6
scalar Scenario.node[4].nic.mac1609_4 DroppedPacketsInMac 0
scalar Scenario.node[4].nic.mac1609_4 TooLittleTime 0
scalar Scenario.node[4].nic.mac1609_4 TimesIntoBackoff 90
scalar Scenario.node[4].nic.mac1609_4 SlotsBackoff 144
scalar Scenario.node[4].nic.mac1609_4 NumInternalContention 0
scalar Scenario.node[4].nic.mac1609_4 totalBusyTime 0.061338
scalar Scenario.node[4].nic.mac1609_4 retriesExceeded:count 0
attr recordingmode count
attr source org_car2x_veins_modules_mac_sigRetriesExceeded
scalar Scenario.node[4].nic.mac1609_4 sentAcks:count 0
attr recordingmode count
attr source org_car2x_veins_modules_mac_sigSentAck
scalar Scenario.node[4].nic.mac1609_4 sentPackets:count 90
attr recordingmode count
attr source org_car2x_veins_modules_mac_sigSentPacket
scalar Scenario.node[4].nic.mac1609_4 collisions:count 0
attr recordingmode count
attr source org_car2x_veins_modules_mac_sigCollision
scalar Scenario.node[4].nic.mac1609_4 channelBusy:timeavg 0.00031248697216867
attr recordingmode timeavg
attr source org_car2x_veins_modules_mac_sigChannelBusy
par Scenario.node[4].nic typename "\"org.car2x.veins.modules.nic.Nic80211p\""
par Scenario.node[4].nic connectionManagerName "\"connectionManager\""
par Scenario.node[4].veinsmobility typename "\"org.car2x.veins.modules.mobility.traci.TraCIMobility\""
par Scenario.node[4].veinsmobility notAffectedByHostState true
par Scenario.node[4].veinsmobility x 0
par Scenario.node[4].veinsmobility y 0
par Scenario.node[4].veinsmobility z 0
par Scenario.node[4].veinsmobility xOrientation 1
par Scenario.node[4].veinsmobility yOrientation 0
par Scenario.node[4].veinsmobility zOrientation 0
par Scenario.node[4].veinsmobility hostPositionOffset 0m
attr unit m
par Scenario.node[4].veinsmobility setHostSpeed false
par Scenario.node[4].veinsmobility accidentCount 0
par Scenario.node[4].veinsmobility accidentStart 50.9289s
attr unit s
par Scenario.node[4].veinsmobility accidentDuration "uniform(30s, 60s)"
attr unit s
par Scenario.node[4].veinsmobility accidentInterval "uniform(30s, 60s)"
attr unit s
scalar Scenario.node[4].veinsmobility startTime 3
scalar Scenario.node[4].veinsmobility totalTime 196
scalar Scenario.node[4].veinsmobility stopTime 199.2897831366
scalar Scenario.node[4].veinsmobility minSpeed 0
scalar Scenario.node[4].veinsmobility maxSpeed 24.457464450419
scalar Scenario.node[4].veinsmobility totalDistance 2259.6968621858
scalar Scenario.node[4].veinsmobility totalCO2Emission 697.16724763964
par Scenario.node[4] typename "\"org.car2x.veins.nodes.Car\""
par Scenario.node[4] applType "\"VehicleApplication\""
par Scenario.node[4] nicType "\"Nic80211p\""
par Scenario.node[4] veinsmobilityType "\"org.car2x.veins.modules.mobility.traci.TraCIMobility\""
par Scenario.node[5].appl typename "\"org.car2x.veins.subprojects.iov_sim.modules.applications.VehicleApplication\""
par Scenario.node[5].appl headerLength 80bit
attr unit bit
par Scenario.node[5].appl sendBeacons false
par Scenario.node[5].appl beaconLengthBits 256bit
attr unit bit
par Scenario.node[5].appl beaconUserPriority 7
par Scenario.node[5].appl beaconInterval 1s
attr unit s
par Scenario.node[5].appl dataLengthBits 1024bit
attr unit bit
par Scenario.node[5].appl dataOnSch false
par Scenario.node[5].appl dataUserPriority 7
par Scenario.node[5].appl avoidBeaconSynchronization true
par Scenario.node[5].appl sendWSA false
par Scenario.node[5].appl wsaLengthBits 250bit
attr unit bit
par Scenario.node[5].appl wsaInterval 1s
attr unit s
par Scenario.node[5].appl appName "\"Vehicle Application\""
par Scenario.node[5].appl clusterBeaconDelay 5
par Scenario.node[5].appl localStepsPerEpoch 5
par Scenario.node[5].appl neighborTableTimeout 30
par Scenario.node[5].appl clusterElectionTimeout 3
par Scenario.node[5].appl clusterHeadTimeout 3
par Scenario.node[5].appl connectivityThreshold 0.6
par Scenario.node[5].appl electionScoreThreshold 0.6
par Scenario.node[5].appl clusterScoreThreshold 0.6
scalar Scenario.node[5].appl generatedWSMs 111
scalar Scenario.node[5].appl receivedWSMs 0
scalar Scenario.node[5].appl generatedBSMs 0
scalar Scenario.node[5].appl receivedBSMs 0
scalar Scenario.node[5].appl generatedWSAs 0
scalar Scenario.node[5].appl receivedWSAs 0
scalar Scenario.node[5].appl sendPackets 13
scalar Scenario.node[5].appl rcvdPackets 5
scalar Scenario.node[5].appl avgPacketDelivery 38.461538461538
scalar Scenario.node[5].appl avgPacketDelay 0.29254882600185
scalar Scenario.node[5].appl avgClusterLifetime 7.293359979578
scalar Scenario.node[5].appl lifetimeSpentInCluster 18.673173430882
scalar Scenario.node[5].appl timeAlive 195.2897831366
par Scenario.node[5].nic.phy80211p typename "\"org.car2x.veins.modules.phy.PhyLayer80211p\""
par Scenario.node[5].nic.phy80211p recordStats false
par Scenario.node[5].nic.phy80211p usePropagationDelay true
par Scenario.node[5].nic.phy80211p noiseFloor -98dBm
attr unit dBm
par Scenario.node[5].nic.phy80211p useNoiseFloor false
par Scenario.node[5].nic.phy80211p antenna "<Antenna type=\"SampledAntenna1D\" id=\"monopole\">...</Antenna> at /home/chandler/src/iov_sim/examples/iov_sim//antenna.xml:35"
par Scenario.node[5].nic.phy80211p antennaOffsetX 0m
attr unit m
par Scenario.node[5].nic.phy80211p antennaOffsetY 0m
attr unit m
par Scenario.node[5].nic.phy80211p antennaOffsetZ 1.895m
attr unit m
par Scenario.node[5].nic.phy80211p antennaOffsetYaw 0rad
attr unit rad
par Scenario.node[5].nic.phy80211p analogueModels "<root>...</root> at /home/chandler/src/iov_sim/examples/iov_sim//config.xml:34"
par Scenario.node[5].nic.phy80211p decider "<root>...</root> at /home/chandler/src/iov_sim/examples/iov_sim//config.xml:34"
par Scenario.node[5].nic.phy80211p minPowerLevel -110dBm
attr unit dBm
par Scenario.node[5].nic.phy80211p timeRXToTX 0s
attr unit s
par Scenario.node[5].nic.phy80211p timeRXToSleep 0s
attr unit s
par Scenario.node[5].nic.phy80211p timeTXToRX 0s
attr unit s
par Scenario.node[5].nic.phy80211p timeTXToSleep 0s
attr unit s
par Scenario.node[5].nic.phy80211p timeSleepToRX 0s
attr unit s
par Scenario.node[5].nic.phy80211p timeSleepToTX 0s
attr unit s
par Scenario.node[5].nic.phy80211p initialRadioState 0
par Scenario.node[5].nic.phy80211p radioMinAtt 1
par Scenario.node[5].nic.phy80211p radioMaxAtt 0
par Scenario.node[5].nic.phy80211p nbRadioChannels 1
par Scenario.node[5].nic.phy80211p initialRadioChannel 0
par Scenario.node[5].nic.phy80211p ccaThreshold -65dBm
attr unit dBm
par Scenario.node[5].nic.phy80211p collectCollisionStatistics false
par Scenario.node[5].nic.phy80211p allowTxDuringRx false
scalar Scenario.node[5].nic.phy80211p busyTime 0.00047400329148429
par Scenario.node[5].nic.mac1609_4 typename "\"org.car2x.veins.modules.mac.ieee80211p.Mac1609_4\""
par Scenario.node[5].nic.mac1609_4 notAffectedByHostState false
par Scenario.node[5].nic.mac1609_4 headerLength 0bit
attr unit bit
par Scenario.node[5].nic.mac1609_4 address "\"auto\""
par Scenario.node[5].nic.mac1609_4 useServiceChannel false
par Scenario.node[5].nic.mac1609_4 serviceChannel 1
par Scenario.node[5].nic.mac1609_4 bitrate 6000000bps
attr unit bps
par Scenario.node[5].nic.mac1609_4 syncOffset 0.0003s
attr unit s
par Scenario.node[5].nic.mac1609_4 txPower 20mW
attr unit mW
par Scenario.node[5].nic.mac1609_4 queueSize 0
par Scenario.node[5].nic.mac1609_4 dot11RTSThreshold 12000bit
attr unit bit
par Scenario.node[5].nic.mac1609_4 dot11ShortRetryLimit 7
par Scenario.node[5].nic.mac1609_4 dot11LongRetryLimit 4
par Scenario.node[5].nic.mac1609_4 ackLength 112bit
attr unit bit
par Scenario.node[5].nic.mac1609_4 useAcks false
par Scenario.node[5].nic.mac1609_4 frameErrorRate 0
par Scenario.node[5].nic.mac1609_4 ackErrorRate 0
scalar Scenario.node[5].nic.mac1609_4 ReceivedUnicastPackets 0
scalar Scenario.node[5].nic.mac1609_4 ReceivedBroadcasts 375
scalar Scenario.node[5].nic.mac1609_4 SentPackets 111
scalar Scenario.node[5].nic.mac1609_4 SentAcknowledgements 0
scalar Scenario.node[5].nic.mac1609_4 RetriesExceeded 0
scalar Scenario.node[5].nic.mac1609_4 SNIRLostPackets 24
scalar Scenario.node[5].nic.mac1609_4 RXTXLostPackets 5
scalar Scenario.node[5].nic.mac1609_4 TotalLostPackets 29
scalar Scenario.node[5].nic.mac1609_4 DroppedPacketsInMac 0
scalar Scenario.node[5].nic.mac1609_4 TooLittleTime 0
scalar Scenario.node[5].nic.mac1609_4 TimesIntoBackoff 111
scalar Scenario.node[5].nic.mac1609_4 SlotsBackoff 157
scalar Scenario.node[5].nic.mac1609_4 NumInternalContention 0
scalar Scenario.node[5].nic.mac1609_4 totalBusyTime 0.114487012589
scalar Scenario.node[5].nic.mac1609_4 retriesExceeded:count 0
attr recordingmode count
attr source org_car2x_veins_modules_mac_sigRetriesExceeded
scalar Scenario.node[5].nic.mac1609_4 sentAcks:count 0
attr recordingmode count
attr source org_car2x_veins_modules_mac_sigSentAck
scalar Scenario.node[5].nic.mac1609_4 sentPackets:count 111
attr recordingmode count
attr source org_car2x_veins_modules_mac_sigSentPacket
scalar Scenario.node[5].nic.mac1609_4 collisions:count 0
attr recordingmode count
attr source org_car2x_veins_modules_mac_sigCollision
scalar Scenario.node[5].nic.mac1609_4 channelBusy:timeavg 0.00058624169042638
attr recordingmode timeavg
attr source org_car2x_veins_modules_mac_sigChannelBusy
par Scenario.node[5].nic typename "\"org.car2x.veins.modules.nic.Nic80211p\""
par Scenario.node[5].nic connectionManagerName "\"connectionManager\""
par Scenario.node[5].veinsmobility typename "\"org.car2x.veins.modules.mobility.traci.TraCIMobility\""
par Scenario.node[5].veinsmobility notAffectedByHostState true
par Scenario.node[5].veinsmobility x 0
par Scenario.node[5].veinsmobility y 0
par Scenario.node[5].veinsmobility z 0
par Scenario.node[5].veinsmobility xOrientation 1
par Scenario.node[5].veinsmobility yOrientation 0
par Scenario.node[5].veinsmobility zOrientation 0
par Scenario.node[5].veinsmobility hostPositionOffset 0m
attr unit m
par Scenario.node[5].veinsmobility setHostSpeed false
par Scenario.node[5].veinsmobility accidentCount 0
par Scenario.node[5].veinsmobility accidentStart 58.7685s
attr unit s
[...]
par Scenario.rsu[6].mobility xOrientation 1
par Scenario.rsu[6].mobility yOrientation 0
par Scenario.rsu[6].mobility zOrientation 0
par Scenario.rsu[6] typename "\"org.car2x.veins.nodes.RSU\""
par Scenario.rsu[6] applType "\"RSUApplication\""
par Scenario.rsu[6] nicType "\"Nic80211p\""
par Scenario.rsu[7].appl typename "\"org.car2x.veins.subprojects.iov_sim.modules.applications.RSUApplication\""
par Scenario.rsu[7].appl headerLength 80bit
attr unit bit
par Scenario.rsu[7].appl sendBeacons false
par Scenario.rsu[7].appl beaconLengthBits 256bit
attr unit bit
par Scenario.rsu[7].appl beaconUserPriority 7
par Scenario.rsu[7].appl beaconInterval 1s
attr unit s
par Scenario.rsu[7].appl dataLengthBits 1024bit
attr unit bit
par Scenario.rsu[7].appl dataOnSch false
par Scenario.rsu[7].appl dataUserPriority 5
par Scenario.rsu[7].appl avoidBeaconSynchronization true
par Scenario.rsu[7].appl sendWSA false
par Scenario.rsu[7].appl wsaLengthBits 250bit
attr unit bit
par Scenario.rsu[7].appl wsaInterval 1s
attr unit s
par Scenario.rsu[7].appl appName "\"RSU Application\""
par Scenario.rsu[7].appl policyLoad "\"fed_p\""
par Scenario.rsu[7].appl policySave "\"fed_p\""
par Scenario.rsu[7].appl valueLoad "\"fed_v\""
par Scenario.rsu[7].appl valueSave "\"fed_v\""
par Scenario.rsu[7].appl loadModel true
par Scenario.rsu[7].appl saveModel true
scalar Scenario.rsu[7].appl generatedWSMs 1
scalar Scenario.rsu[7].appl receivedWSMs 0
scalar Scenario.rsu[7].appl generatedBSMs 0
scalar Scenario.rsu[7].appl receivedBSMs 0
scalar Scenario.rsu[7].appl generatedWSAs 0
scalar Scenario.rsu[7].appl receivedWSAs 0
par Scenario.rsu[7].nic.phy80211p typename "\"org.car2x.veins.modules.phy.PhyLayer80211p\""
par Scenario.rsu[7].nic.phy80211p recordStats false
par Scenario.rsu[7].nic.phy80211p usePropagationDelay true
par Scenario.rsu[7].nic.phy80211p noiseFloor -98dBm
attr unit dBm
par Scenario.rsu[7].nic.phy80211p useNoiseFloor false
par Scenario.rsu[7].nic.phy80211p antenna "<Antenna type=\"SampledAntenna1D\" id=\"monopole\">...</Antenna> at /home/chandler/src/iov_sim/examples/iov_sim//antenna.xml:35"
par Scenario.rsu[7].nic.phy80211p antennaOffsetX 0m
attr unit m
par Scenario.rsu[7].nic.phy80211p antennaOffsetY 0m
attr unit m
par Scenario.rsu[7].nic.phy80211p antennaOffsetZ 0m
attr unit m
par Scenario.rsu[7].nic.phy80211p antennaOffsetYaw 0rad
attr unit rad
par Scenario.rsu[7].nic.phy80211p analogueModels "<root>...</root> at /home/chandler/src/iov_sim/examples/iov_sim//config.xml:34"
par Scenario.rsu[7].nic.phy80211p decider "<root>...</root> at /home/chandler/src/iov_sim/examples/iov_sim//config.xml:34"
par Scenario.rsu[7].nic.phy80211p minPowerLevel -110dBm
attr unit dBm
par Scenario.rsu[7].nic.phy80211p timeRXToTX 0s
attr unit s
par Scenario.rsu[7].nic.phy80211p timeRXToSleep 0s
attr unit s
par Scenario.rsu[7].nic.phy80211p timeTXToRX 0s
attr unit s
par Scenario.rsu[7].nic.phy80211p timeTXToSleep 0s
attr unit s
par Scenario.rsu[7].nic.phy80211p timeSleepToRX 0s
attr unit s
par Scenario.rsu[7].nic.phy80211p timeSleepToTX 0s
attr unit s
par Scenario.rsu[7].nic.phy80211p initialRadioState 0
par Scenario.rsu[7].nic.phy80211p radioMinAtt 1
par Scenario.rsu[7].nic.phy80211p radioMaxAtt 0
par Scenario.rsu[7].nic.phy80211p nbRadioChannels 1
par Scenario.rsu[7].nic.phy80211p initialRadioChannel 0
par Scenario.rsu[7].nic.phy80211p ccaThreshold -65dBm
attr unit dBm
par Scenario.rsu[7].nic.phy80211p collectCollisionStatistics false
par Scenario.rsu[7].nic.phy80211p allowTxDuringRx false
scalar Scenario.rsu[7].nic.phy80211p busyTime 0
par Scenario.rsu[7].nic.mac1609_4 typename "\"org.car2x.veins.modules.mac.ieee80211p.Mac1609_4\""
par Scenario.rsu[7].nic.mac1609_4 notAffectedByHostState false
par Scenario.rsu[7].nic.mac1609_4 headerLength 0bit
attr unit bit
par Scenario.rsu[7].nic.mac1609_4 address "\"auto\""
par Scenario.rsu[7].nic.mac1609_4 useServiceChannel false
par Scenario.rsu[7].nic.mac1609_4 serviceChannel 1
par Scenario.rsu[7].nic.mac1609_4 bitrate 6000000bps
attr unit bps
par Scenario.rsu[7].nic.mac1609_4 syncOffset 0.0003s
attr unit s
par Scenario.rsu[7].nic.mac1609_4 txPower 20mW
attr unit mW
par Scenario.rsu[7].nic.mac1609_4 queueSize 0
par Scenario.rsu[7].nic.mac1609_4 dot11RTSThreshold 12000bit
attr unit bit
par Scenario.rsu[7].nic.mac1609_4 dot11ShortRetryLimit 7
par Scenario.rsu[7].nic.mac1609_4 dot11LongRetryLimit 4
par Scenario.rsu[7].nic.mac1609_4 ackLength 112bit
attr unit bit
par Scenario.rsu[7].nic.mac1609_4 useAcks false
par Scenario.rsu[7].nic.mac1609_4 frameErrorRate 0
par Scenario.rsu[7].nic.mac1609_4 ackErrorRate 0
scalar Scenario.rsu[7].nic.mac1609_4 ReceivedUnicastPackets 0
scalar Scenario.rsu[7].nic.mac1609_4 ReceivedBroadcasts 0
scalar Scenario.rsu[7].nic.mac1609_4 SentPackets 1
scalar Scenario.rsu[7].nic.mac1609_4 SentAcknowledgements 0
scalar Scenario.rsu[7].nic.mac1609_4 RetriesExceeded 0
scalar Scenario.rsu[7].nic.mac1609_4 SNIRLostPackets 0
scalar Scenario.rsu[7].nic.mac1609_4 RXTXLostPackets 0
scalar Scenario.rsu[7].nic.mac1609_4 TotalLostPackets 0
scalar Scenario.rsu[7].nic.mac1609_4 DroppedPacketsInMac 0
scalar Scenario.rsu[7].nic.mac1609_4 TooLittleTime 0
scalar Scenario.rsu[7].nic.mac1609_4 TimesIntoBackoff 1
scalar Scenario.rsu[7].nic.mac1609_4 SlotsBackoff 6
scalar Scenario.rsu[7].nic.mac1609_4 NumInternalContention 0
scalar Scenario.rsu[7].nic.mac1609_4 totalBusyTime 0.000233
scalar Scenario.rsu[7].nic.mac1609_4 retriesExceeded:count 0
attr recordingmode count
attr source org_car2x_veins_modules_mac_sigRetriesExceeded
scalar Scenario.rsu[7].nic.mac1609_4 sentAcks:count 0
attr recordingmode count
attr source org_car2x_veins_modules_mac_sigSentAck
scalar Scenario.rsu[7].nic.mac1609_4 sentPackets:count 1
attr recordingmode count
attr source org_car2x_veins_modules_mac_sigSentPacket
scalar Scenario.rsu[7].nic.mac1609_4 collisions:count 0
attr recordingmode count
attr source org_car2x_veins_modules_mac_sigCollision
scalar Scenario.rsu[7].nic.mac1609_4 channelBusy:timeavg 1.1691517564666e-06
attr recordingmode timeavg
attr source org_car2x_veins_modules_mac_sigChannelBusy
par Scenario.rsu[7].nic typename "\"org.car2x.veins.modules.nic.Nic80211p\""
par Scenario.rsu[7].nic connectionManagerName "\"connectionManager\""
par Scenario.rsu[7].mobility typename "\"org.car2x.veins.base.modules.BaseMobility\""
par Scenario.rsu[7].mobility notAffectedByHostState true
par Scenario.rsu[7].mobility x 2750
par Scenario.rsu[7].mobility y 6000
par Scenario.rsu[7].mobility z 3
par Scenario.rsu[7].mobility xOrientation 1
par Scenario.rsu[7].mobility yOrientation 0
par Scenario.rsu[7].mobility zOrientation 0
par Scenario.rsu[7] typename "\"org.car2x.veins.nodes.RSU\""
par Scenario.rsu[7] applType "\"RSUApplication\""
par Scenario.rsu[7] nicType "\"Nic80211p\""
par Scenario.rsu[8].appl typename "\"org.car2x.veins.subprojects.iov_sim.modules.applications.RSUApplication\""
par Scenario.rsu[8].appl headerLength 80bit
attr unit bit
par Scenario.rsu[8].appl sendBeacons false
par Scenario.rsu[8].appl beaconLengthBits 256bit
attr unit bit
par Scenario.rsu[8].appl beaconUserPriority 7
par Scenario.rsu[8].appl beaconInterval 1s
attr unit s
par Scenario.rsu[8].appl dataLengthBits 1024bit
attr unit bit
par Scenario.rsu[8].appl dataOnSch false
par Scenario.rsu[8].appl dataUserPriority 5
par Scenario.rsu[8].appl avoidBeaconSynchronization true
par Scenario.rsu[8].appl sendWSA false
par Scenario.rsu[8].appl wsaLengthBits 250bit
attr unit bit
par Scenario.rsu[8].appl wsaInterval 1s
attr unit s
par Scenario.rsu[8].appl appName "\"RSU Application\""
par Scenario.rsu[8].appl policyLoad "\"fed_p\""
par Scenario.rsu[8].appl policySave "\"fed_p\""
par Scenario.rsu[8].appl valueLoad "\"fed_v\""
par Scenario.rsu[8].appl valueSave "\"fed_v\""
par Scenario.rsu[8].appl loadModel true
par Scenario.rsu[8].appl saveModel true
scalar Scenario.rsu[8].appl generatedWSMs 2
scalar Scenario.rsu[8].appl receivedWSMs 0
scalar Scenario.rsu[8].appl generatedBSMs 0
scalar Scenario.rsu[8].appl receivedBSMs 0
scalar Scenario.rsu[8].appl generatedWSAs 0
scalar Scenario.rsu[8].appl receivedWSAs 0
par Scenario.rsu[8].nic.phy80211p typename "\"org.car2x.veins.modules.phy.PhyLayer80211p\""
par Scenario.rsu[8].nic.phy80211p recordStats false
par Scenario.rsu[8].nic.phy80211p usePropagationDelay true
par Scenario.rsu[8].nic.phy80211p noiseFloor -98dBm
attr unit dBm
par Scenario.rsu[8].nic.phy80211p useNoiseFloor false
par Scenario.rsu[8].nic.phy80211p antenna "<Antenna type=\"SampledAntenna1D\" id=\"monopole\">...</Antenna> at /home/chandler/src/iov_sim/examples/iov_sim//antenna.xml:35"
par Scenario.rsu[8].nic.phy80211p antennaOffsetX 0m
attr unit m
par Scenario.rsu[8].nic.phy80211p antennaOffsetY 0m
attr unit m
par Scenario.rsu[8].nic.phy80211p antennaOffsetZ 0m
attr unit m
par Scenario.rsu[8].nic.phy80211p antennaOffsetYaw 0rad
attr unit rad
par Scenario.rsu[8].nic.phy80211p analogueModels "<root>...</root> at /home/chandler/src/iov_sim/examples/iov_sim//config.xml:34"
par Scenario.rsu[8].nic.phy80211p decider "<root>...</root> at /home/chandler/src/iov_sim/examples/iov_sim//config.xml:34"
par Scenario.rsu[8].nic.phy80211p minPowerLevel -110dBm
attr unit dBm
par Scenario.rsu[8].nic.phy80211p timeRXToTX 0s
attr unit s
par Scenario.rsu[8].nic.phy80211p timeRXToSleep 0s
attr unit s
par Scenario.rsu[8].nic.phy80211p timeTXToRX 0s
attr unit s
par Scenario.rsu[8].nic.phy80211p timeTXToSleep 0s
attr unit s
par Scenario.rsu[8].nic.phy80211p timeSleepToRX 0s
attr unit s
par Scenario.rsu[8].nic.phy80211p timeSleepToTX 0s
attr unit s
par Scenario.rsu[8].nic.phy80211p initialRadioState 0
par Scenario.rsu[8].nic.phy80211p radioMinAtt 1
par Scenario.rsu[8].nic.phy80211p radioMaxAtt 0
par Scenario.rsu[8].nic.phy80211p nbRadioChannels 1
par Scenario.rsu[8].nic.phy80211p initialRadioChannel 0
par Scenario.rsu[8].nic.phy80211p ccaThreshold -65dBm
attr unit dBm
par Scenario.rsu[8].nic.phy80211p collectCollisionStatistics false
par Scenario.rsu[8].nic.phy80211p allowTxDuringRx false
scalar Scenario.rsu[8].nic.phy80211p busyTime 9.8951384710392e-05
par Scenario.rsu[8].nic.mac1609_4 typename "\"org.car2x.veins.modules.mac.ieee80211p.Mac1609_4\""
par Scenario.rsu[8].nic.mac1609_4 notAffectedByHostState false
par Scenario.rsu[8].nic.mac1609_4 headerLength 0bit
attr unit bit
par Scenario.rsu[8].nic.mac1609_4 address "\"auto\""
par Scenario.rsu[8].nic.mac1609_4 useServiceChannel false
par Scenario.rsu[8].nic.mac1609_4 serviceChannel 1
par Scenario.rsu[8].nic.mac1609_4 bitrate 6000000bps
attr unit bps
par Scenario.rsu[8].nic.mac1609_4 syncOffset 0.0003s
attr unit s
par Scenario.rsu[8].nic.mac1609_4 txPower 20mW
attr unit mW
par Scenario.rsu[8].nic.mac1609_4 queueSize 0
par Scenario.rsu[8].nic.mac1609_4 dot11RTSThreshold 12000bit
attr unit bit
par Scenario.rsu[8].nic.mac1609_4 dot11ShortRetryLimit 7
par Scenario.rsu[8].nic.mac1609_4 dot11LongRetryLimit 4
par Scenario.rsu[8].nic.mac1609_4 ackLength 112bit
attr unit bit
par Scenario.rsu[8].nic.mac1609_4 useAcks false
par Scenario.rsu[8].nic.mac1609_4 frameErrorRate 0
par Scenario.rsu[8].nic.mac1609_4 ackErrorRate 0
scalar Scenario.rsu[8].nic.mac1609_4 ReceivedUnicastPackets 0
scalar Scenario.rsu[8].nic.mac1609_4 ReceivedBroadcasts 85
scalar Scenario.rsu[8].nic.mac1609_4 SentPackets 2
scalar Scenario.rsu[8].nic.mac1609_4 SentAcknowledgements 0
scalar Scenario.rsu[8].nic.mac1609_4 RetriesExceeded 0
scalar Scenario.rsu[8].nic.mac1609_4 SNIRLostPackets 0
scalar Scenario.rsu[8].nic.mac1609_4 RXTXLostPackets 0
scalar Scenario.rsu[8].nic.mac1609_4 TotalLostPackets 0
scalar Scenario.rsu[8].nic.mac1609_4 DroppedPacketsInMac 0
scalar Scenario.rsu[8].nic.mac1609_4 TooLittleTime 0
scalar Scenario.rsu[8].nic.mac1609_4 TimesIntoBackoff 2
scalar Scenario.rsu[8].nic.mac1609_4 SlotsBackoff 4
scalar Scenario.rsu[8].nic.mac1609_4 NumInternalContention 0
scalar Scenario.rsu[8].nic.mac1609_4 totalBusyTime 0.020186
scalar Scenario.rsu[8].nic.mac1609_4 retriesExceeded:count 0
attr recordingmode count
attr source org_car2x_veins_modules_mac_sigRetriesExceeded
scalar Scenario.rsu[8].nic.mac1609_4 sentAcks:count 0
attr recordingmode count
attr source org_car2x_veins_modules_mac_sigSentAck
scalar Scenario.rsu[8].nic.mac1609_4 sentPackets:count 2
attr recordingmode count
attr source org_car2x_veins_modules_mac_sigSentPacket
scalar Scenario.rsu[8].nic.mac1609_4 collisions:count 0
attr recordingmode count
attr source org_car2x_veins_modules_mac_sigCollision
scalar Scenario.rsu[8].nic.mac1609_4 channelBusy:timeavg 0.00010128968822333
attr recordingmode timeavg
attr source org_car2x_veins_modules_mac_sigChannelBusy
par Scenario.rsu[8].nic typename "\"org.car2x.veins.modules.nic.Nic80211p\""
par Scenario.rsu[8].nic connectionManagerName "\"connectionManager\""
par Scenario.rsu[8].mobility typename "\"org.car2x.veins.base.modules.BaseMobility\""
par Scenario.rsu[8].mobility notAffectedByHostState true
par Scenario.rsu[8].mobility x 5750
par Scenario.rsu[8].mobility y 5750
par Scenario.rsu[8].mobility z 3
par Scenario.rsu[8].mobility xOrientation 1
par Scenario.rsu[8].mobility yOrientation 0
par Scenario.rsu[8].mobility zOrientation 0
par Scenario.rsu[8] typename "\"org.car2x.veins.nodes.RSU\""
par Scenario.rsu[8] applType "\"RSUApplication\""
par Scenario.rsu[8] nicType "\"Nic80211p\""
par Scenario.rsu[9].appl typename "\"org.car2x.veins.subprojects.iov_sim.modules.applications.RSUApplication\""
par Scenario.rsu[9].appl headerLength 80bit
attr unit bit
par Scenario.rsu[9].appl sendBeacons false
par Scenario.rsu[9].appl beaconLengthBits 256bit
attr unit bit
par Scenario.rsu[9].appl beaconUserPriority 7
par Scenario.rsu[9].appl beaconInterval 1s
attr unit s
par Scenario.rsu[9].appl dataLengthBits 1024bit
attr unit bit
par Scenario.rsu[9].appl dataOnSch false
par Scenario.rsu[9].appl dataUserPriority 5
par Scenario.rsu[9].appl avoidBeaconSynchronization true
par Scenario.rsu[9].appl sendWSA false
par Scenario.rsu[9].appl wsaLengthBits 250bit
attr unit bit
par Scenario.rsu[9].appl wsaInterval 1s
attr unit s
par Scenario.rsu[9].appl appName "\"RSU Application\""
par Scenario.rsu[9].appl policyLoad "\"fed_p\""
par Scenario.rsu[9].appl policySave "\"fed_p\""
par Scenario.rsu[9].appl valueLoad "\"fed_v\""
par Scenario.rsu[9].appl valueSave "\"fed_v\""
par Scenario.rsu[9].appl loadModel true
par Scenario.rsu[9].appl saveModel true
scalar Scenario.rsu[9].appl generatedWSMs 2
scalar Scenario.rsu[9].appl receivedWSMs 0
scalar Scenario.rsu[9].appl generatedBSMs 0
scalar Scenario.rsu[9].appl receivedBSMs 0
scalar Scenario.rsu[9].appl generatedWSAs 0
scalar Scenario.rsu[9].appl receivedWSAs 0
par Scenario.rsu[9].nic.phy80211p typename "\"org.car2x.veins.modules.phy.PhyLayer80211p\""
par Scenario.rsu[9].nic.phy80211p recordStats false
par Scenario.rsu[9].nic.phy80211p usePropagationDelay true
par Scenario.rsu[9].nic.phy80211p noiseFloor -98dBm
attr unit dBm
par Scenario.rsu[9].nic.phy80211p useNoiseFloor false
par Scenario.rsu[9].nic.phy80211p antenna "<Antenna type=\"SampledAntenna1D\" id=\"monopole\">...</Antenna> at /home/chandler/src/iov_sim/examples/iov_sim//antenna.xml:35"
par Scenario.rsu[9].nic.phy80211p antennaOffsetX 0m
attr unit m
par Scenario.rsu[9].nic.phy80211p antennaOffsetY 0m
attr unit m
par Scenario.rsu[9].nic.phy80211p antennaOffsetZ 0m
attr unit m
par Scenario.rsu[9].nic.phy80211p antennaOffsetYaw 0rad
attr unit rad
par Scenario.rsu[9].nic.phy80211p analogueModels "<root>...</root> at /home/chandler/src/iov_sim/examples/iov_sim//config.xml:34"
par Scenario.rsu[9].nic.phy80211p decider "<root>...</root> at /home/chandler/src/iov_sim/examples/iov_sim//config.xml:34"
par Scenario.rsu[9].nic.phy80211p minPowerLevel -110dBm
attr unit dBm
par Scenario.rsu[9].nic.phy80211p timeRXToTX 0s
attr unit s
par Scenario.rsu[9].nic.phy80211p timeRXToSleep 0s
attr unit s
par Scenario.rsu[9].nic.phy80211p timeTXToRX 0s
attr unit s
par Scenario.rsu[9].nic.phy80211p timeTXToSleep 0s
attr unit s
par Scenario.rsu[9].nic.phy80211p timeSleepToRX 0s
attr unit s
par Scenario.rsu[9].nic.phy80211p timeSleepToTX 0s
attr unit s
par Scenario.rsu[9].nic.phy80211p initialRadioState 0
par Scenario.rsu[9].nic.phy80211p radioMinAtt 1
par Scenario.rsu[9].nic.phy80211p radioMaxAtt 0
par Scenario.rsu[9].nic.phy80211p nbRadioChannels 1
par Scenario.rsu[9].nic.phy80211p initialRadioChannel 0
par Scenario.rsu[9].nic.phy80211p ccaThreshold -65dBm
attr unit dBm
par Scenario.rsu[9].nic.phy80211p collectCollisionStatistics false
par Scenario.rsu[9].nic.phy80211p allowTxDuringRx false
scalar Scenario.rsu[9].nic.phy80211p busyTime 5.7042562950697e-05
par Scenario.rsu[9].nic.mac1609_4 typename "\"org.car2x.veins.modules.mac.ieee80211p.Mac1609_4\""
par Scenario.rsu[9].nic.mac1609_4 notAffectedByHostState false
par Scenario.rsu[9].nic.mac1609_4 headerLength 0bit
attr unit bit
par Scenario.rsu[9].nic.mac1609_4 address "\"auto\""
par Scenario.rsu[9].nic.mac1609_4 useServiceChannel false
par Scenario.rsu[9].nic.mac1609_4 serviceChannel 1
par Scenario.rsu[9].nic.mac1609_4 bitrate 6000000bps
attr unit bps
par Scenario.rsu[9].nic.mac1609_4 syncOffset 0.0003s
attr unit s
par Scenario.rsu[9].nic.mac1609_4 txPower 20mW
attr unit mW
par Scenario.rsu[9].nic.mac1609_4 queueSize 0
par Scenario.rsu[9].nic.mac1609_4 dot11RTSThreshold 12000bit
attr unit bit
par Scenario.rsu[9].nic.mac1609_4 dot11ShortRetryLimit 7
par Scenario.rsu[9].nic.mac1609_4 dot11LongRetryLimit 4
par Scenario.rsu[9].nic.mac1609_4 ackLength 112bit
attr unit bit
par Scenario.rsu[9].nic.mac1609_4 useAcks false
par Scenario.rsu[9].nic.mac1609_4 frameErrorRate 0
par Scenario.rsu[9].nic.mac1609_4 ackErrorRate 0
scalar Scenario.rsu[9].nic.mac1609_4 ReceivedUnicastPackets 0
scalar Scenario.rsu[9].nic.mac1609_4 ReceivedBroadcasts 45
scalar Scenario.rsu[9].nic.mac1609_4 SentPackets 2
scalar Scenario.rsu[9].nic.mac1609_4 SentAcknowledgements 0
scalar Scenario.rsu[9].nic.mac1609_4 RetriesExceeded 0
scalar Scenario.rsu[9].nic.mac1609_4 SNIRLostPackets 4
scalar Scenario.rsu[9].nic.mac1609_4 RXTXLostPackets 1
scalar Scenario.rsu[9].nic.mac1609_4 TotalLostPackets 5
scalar Scenario.rsu[9].nic.mac1609_4 DroppedPacketsInMac 0
scalar Scenario.rsu[9].nic.mac1609_4 TooLittleTime 0
scalar Scenario.rsu[9].nic.mac1609_4 TimesIntoBackoff 2
scalar Scenario.rsu[9].nic.mac1609_4 SlotsBackoff 6
scalar Scenario.rsu[9].nic.mac1609_4 NumInternalContention 0
scalar Scenario.rsu[9].nic.mac1609_4 totalBusyTime 0.01137
scalar Scenario.rsu[9].nic.mac1609_4 retriesExceeded:count 0
attr recordingmode count
attr source org_car2x_veins_modules_mac_sigRetriesExceeded
scalar Scenario.rsu[9].nic.mac1609_4 sentAcks:count 0
attr recordingmode count
attr source org_car2x_veins_modules_mac_sigSentAck
scalar Scenario.rsu[9].nic.mac1609_4 sentPackets:count 2
attr recordingmode count
attr source org_car2x_veins_modules_mac_sigSentPacket
scalar Scenario.rsu[9].nic.mac1609_4 collisions:count 0
attr recordingmode count
attr source org_car2x_veins_modules_mac_sigCollision
scalar Scenario.rsu[9].nic.mac1609_4 channelBusy:timeavg 5.7052598588091e-05
attr recordingmode timeavg
attr source org_car2x_veins_modules_mac_sigChannelBusy
par Scenario.rsu[9].nic typename "\"org.car2x.veins.modules.nic.Nic80211p\""
par Scenario.rsu[9].nic connectionManagerName "\"connectionManager\""
par Scenario.rsu[9].mobility typename "\"org.car2x.veins.base.modules.BaseMobility\""
par Scenario.rsu[9].mobility notAffectedByHostState true
par Scenario.rsu[9].mobility x 9000
par Scenario.rsu[9].mobility y 5500
par Scenario.rsu[9].mobility z 3
par Scenario.rsu[9].mobility xOrientation 1
par Scenario.rsu[9].mobility yOrientation 0
par Scenario.rsu[9].mobility zOrientation 0
par Scenario.rsu[9] typename "\"org.car2x.veins.nodes.RSU\""
par Scenario.rsu[9] applType "\"RSUApplication\""
par Scenario.rsu[9] nicType "\"Nic80211p\""
par Scenario typename "\"iov_sim.examples.iov_sim.Scenario\""
par Scenario playgroundSizeX 12500m
attr unit m
par Scenario playgroundSizeY 7500m
attr unit m
par Scenario playgroundSizeZ 50m
attr unit m
par Scenario n 10

