version 3
run Default-0-20230811-03:46:48-8680
attr configname Default
attr datetime 20230811-03:46:48
attr datetimef 20230811-034648
attr experiment Default
attr inifile omnetpp.ini
attr iterationvars ""
attr iterationvarsd ""
attr iterationvarsf ""
attr measurement ""
attr network Scenario
attr processid 8680
attr repetition 0
attr replication #0
attr resultdir results
attr runnumber 0
attr seedset 0
config image-path ../../images:../../../veins/images
config cmdenv-express-mode true
config cmdenv-autoflush true
config cmdenv-status-frequency 1s
config **.cmdenv-log-level info
config image-path ../../images
config network Scenario
config debug-on-errors true
config print-undisposed true
config sim-time-limit 600s
config **.scalar-recording true
config **.vector-recording true
config *.playgroundSizeX 12500m
config *.playgroundSizeY 7500m
config *.playgroundSizeZ 50m
config *.annotations.draw true
config *.obstacles.obstacles "xmldoc(\"config.xml\", \"//AnalogueModel[@type='SimpleObstacleShadowing']/obstacles\")"
config *.manager.updateInterval 1s
config *.manager.host "\"localhost\""
config *.manager.port 9999
config *.manager.autoShutdown true
config *.manager.launchConfig "xmldoc(\"sumo.launchd.xml\")"
config *.rsu[*].applType "\"RSUApplication\""
config *.rsu[0].appl.policySave "\"fed_p_0\""
config *.rsu[0].appl.valueSave "\"fed_v_0\""
config *.rsu[*].appl.headerLength "80 bit"
config *.rsu[*].appl.sendBeacons false
config *.rsu[*].appl.dataOnSch false
config *.rsu[*].appl.beaconInterval 1s
config *.rsu[*].appl.beaconUserPriority 7
config *.rsu[*].appl.dataUserPriority 5
config *.rsu[*].nic.phy80211p.antennaOffsetZ "0 m"
config *.connectionManager.sendDirect true
config *.connectionManager.maxInterfDist 2600m
config *.connectionManager.drawMaxIntfDist false
config *.**.nic.mac1609_4.useServiceChannel false
config *.**.nic.mac1609_4.txPower 20mW
config *.**.nic.mac1609_4.bitrate 6Mbps
config *.**.nic.phy80211p.minPowerLevel -110dBm
config *.**.nic.phy80211p.useNoiseFloor false
config *.**.nic.phy80211p.noiseFloor -98dBm
config *.**.nic.phy80211p.decider "xmldoc(\"config.xml\")"
config *.**.nic.phy80211p.analogueModels "xmldoc(\"config.xml\")"
config *.**.nic.phy80211p.usePropagationDelay true
config *.**.nic.phy80211p.antenna "xmldoc(\"antenna.xml\", \"/root/Antenna[@id='monopole']\")"
config *.node[*].nic.phy80211p.antennaOffsetY "0 m"
config *.node[*].nic.phy80211p.antennaOffsetZ "1.895 m"
config *.node[*].applType "\"VehicleApplication\""
config *.node[*].appl.headerLength "80 bit"
config *.node[*].appl.sendBeacons false
config *.node[*].appl.dataOnSch false
config *.node[*].appl.beaconInterval 1s
config *.node[*].veinsmobility.x 0
config *.node[*].veinsmobility.y 0
config *.node[*].veinsmobility.z 0
config *.node[*].veinsmobility.setHostSpeed false
config *.node[*0].veinsmobility.accidentCount 1
config *.node[*0].veinsmobility.accidentStart 73s
config *.node[*0].veinsmobility.accidentDuration 50s

vector 0 Scenario.node[0].veinsmobility posx ETV
vector 1 Scenario.node[0].veinsmobility posy ETV
vector 2 Scenario.node[1].veinsmobility posx ETV
vector 3 Scenario.node[1].veinsmobility posy ETV
vector 4 Scenario.node[2].veinsmobility posx ETV
vector 5 Scenario.node[2].veinsmobility posy ETV
vector 6 Scenario.node[0].veinsmobility speed ETV
vector 7 Scenario.node[3].veinsmobility posx ETV
vector 8 Scenario.node[3].veinsmobility posy ETV
vector 9 Scenario.node[4].veinsmobility posx ETV
vector 10 Scenario.node[4].veinsmobility posy ETV
vector 11 Scenario.node[0].veinsmobility acceleration ETV
vector 12 Scenario.node[0].veinsmobility co2emission ETV
vector 13 Scenario.node[1].veinsmobility speed ETV
vector 14 Scenario.node[2].veinsmobility speed ETV
vector 15 Scenario.node[5].veinsmobility posx ETV
vector 16 Scenario.node[5].veinsmobility posy ETV
vector 17 Scenario.node[6].veinsmobility posx ETV
vector 18 Scenario.node[6].veinsmobility posy ETV
vector 19 Scenario.node[1].veinsmobility acceleration ETV
vector 20 Scenario.node[1].veinsmobility co2emission ETV
vector 21 Scenario.node[2].veinsmobility acceleration ETV
vector 22 Scenario.node[2].veinsmobility co2emission ETV
vector 23 Scenario.node[3].veinsmobility speed ETV
vector 24 Scenario.node[4].veinsmobility speed ETV
vector 25 Scenario.node[7].veinsmobility posx ETV
vector 26 Scenario.node[7].veinsmobility posy ETV
vector 27 Scenario.node[8].veinsmobility posx ETV
vector 28 Scenario.node[8].veinsmobility posy ETV
vector 29 Scenario.node[9].veinsmobility posx ETV
vector 30 Scenario.node[9].veinsmobility posy ETV
vector 31 Scenario.node[3].veinsmobility acceleration ETV
vector 32 Scenario.node[3].veinsmobility co2emission ETV
vector 33 Scenario.node[4].veinsmobility acceleration ETV
vector 34 Scenario.node[4].veinsmobility co2emission ETV
vector 35 Scenario.node[5].veinsmobility speed ETV
vector 36 Scenario.node[6].veinsmobility speed ETV
vector 37 Scenario.node[10].veinsmobility posx ETV
vector 38 Scenario.node[10].veinsmobility posy ETV
vector 39 Scenario.node[11].veinsmobility posx ETV
vector 40 Scenario.node[11].veinsmobility posy ETV
vector 41 Scenario.node[5].veinsmobility acceleration ETV
vector 42 Scenario.node[5].veinsmobility co2emission ETV
vector 43 Scenario.node[6].veinsmobility acceleration ETV
vector 44 Scenario.node[6].veinsmobility co2emission ETV
vector 45 Scenario.node[7].veinsmobility speed ETV
vector 46 Scenario.node[8].veinsmobility speed ETV
vector 47 Scenario.node[9].veinsmobility speed ETV
vector 48 Scenario.node[12].veinsmobility posx ETV
vector 49 Scenario.node[12].veinsmobility posy ETV
vector 50 Scenario.node[13].veinsmobility posx ETV
vector 51 Scenario.node[13].veinsmobility posy ETV
vector 52 Scenario.node[7].veinsmobility acceleration ETV
vector 53 Scenario.node[7].veinsmobility co2emission ETV
vector 54 Scenario.node[8].veinsmobility acceleration ETV
vector 55 Scenario.node[8].veinsmobility co2emission ETV
vector 56 Scenario.node[9].veinsmobility acceleration ETV
vector 57 Scenario.node[9].veinsmobility co2emission ETV
vector 58 Scenario.node[10].veinsmobility speed ETV
vector 59 Scenario.node[11].veinsmobility speed ETV
vector 60 Scenario.node[14].veinsmobility posx ETV
vector 61 Scenario.node[14].veinsmobility posy ETV
vector 62 Scenario.node[15].veinsmobility posx ETV
vector 63 Scenario.node[15].veinsmobility posy ETV
vector 64 Scenario.node[10].veinsmobility acceleration ETV
vector 65 Scenario.node[10].veinsmobility co2emission ETV
vector 66 Scenario.node[11].veinsmobility acceleration ETV
vector 67 Scenario.node[11].veinsmobility co2emission ETV
vector 68 Scenario.node[12].veinsmobility speed ETV
vector 69 Scenario.node[13].veinsmobility speed ETV
vector 70 Scenario.node[16].veinsmobility posx ETV
vector 71 Scenario.node[16].veinsmobility posy ETV
vector 72 Scenario.node[17].veinsmobility posx ETV
vector 73 Scenario.node[17].veinsmobility posy ETV
vector 74 Scenario.node[18].veinsmobility posx ETV
vector 75 Scenario.node[18].veinsmobility posy ETV
vector 76 Scenario.node[12].veinsmobility acceleration ETV
vector 77 Scenario.node[12].veinsmobility co2emission ETV
vector 78 Scenario.node[13].veinsmobility acceleration ETV
vector 79 Scenario.node[13].veinsmobility co2emission ETV
vector 80 Scenario.node[14].veinsmobility speed ETV
vector 81 Scenario.node[15].veinsmobility speed ETV
vector 82 Scenario.node[19].veinsmobility posx ETV
vector 83 Scenario.node[19].veinsmobility posy ETV
vector 84 Scenario.node[20].veinsmobility posx ETV
vector 85 Scenario.node[20].veinsmobility posy ETV
vector 86 Scenario.node[14].veinsmobility acceleration ETV
vector 87 Scenario.node[14].veinsmobility co2emission ETV
vector 88 Scenario.node[15].veinsmobility acceleration ETV
vector 89 Scenario.node[15].veinsmobility co2emission ETV
vector 90 Scenario.node[16].veinsmobility speed ETV
vector 91 Scenario.node[17].veinsmobility speed ETV
vector 92 Scenario.node[18].veinsmobility speed ETV
vector 93 Scenario.node[16].veinsmobility acceleration ETV
vector 94 Scenario.node[16].veinsmobility co2emission ETV
vector 95 Scenario.node[17].veinsmobility acceleration ETV
vector 96 Scenario.node[17].veinsmobility co2emission ETV
vector 97 Scenario.node[18].veinsmobility acceleration ETV
vector 98 Scenario.node[18].veinsmobility co2emission ETV
vector 99 Scenario.node[19].veinsmobility speed ETV
vector 100 Scenario.node[20].veinsmobility speed ETV
vector 101 Scenario.node[19].veinsmobility acceleration ETV
vector 102 Scenario.node[19].veinsmobility co2emission ETV
vector 103 Scenario.node[20].veinsmobility acceleration ETV
vector 104 Scenario.node[20].veinsmobility co2emission ETV
77	1802	9	2.2824173589537
77	2667	10	2.7249570824409
77	3426	11	3.231946870402
77	3969	12	5.7551385993202
77	4927	13	7.0281253066618
77	5591	14	8.0699213003089
77	6423	15	7.1032849151994
77	7109	16	11.235115367815
77	8050	17	8.050992732798
77	8495	18	12.509436427066
77	9550	19	1.7624223023331
77	10089	20	0.973
77	10991	21	0.973
77	11586	22	0.973
77	12412	23	1.6412323657986
77	13121	24	1.5602236151005
77	13842	25	4.9002060100623
77	14621	26	8.4083417449135
77	15244	27	8.0292594413264
77	16053	28	0.973
77	16608	29	2.069501581002
77	17283	30	0.973
77	17931	31	5.409466068386
77	18496	32	0.973
77	19179	33	0.973
77	19788	34	6.3006174488237
77	20434	35	5.9711712458416
77	20947	36	3.0754706214501
77	22077	37	3.4072272523622
77	22578	38	2.0418180890193
77	23348	39	0.973
77	23979	40	2.154581133047
77	24602	41	0.973
77	25198	42	4.2437726706128
77	26000	43	1.9324289206477
77	26445	44	0.973
77	27066	45	0.973
77	28013	46	0.973
77	28802	47	6.2890952988408
77	29331	48	5.5914009178038
77	30012	49	8.5228673751399
77	30787	50	0.973
77	31324	51	3.4179004744363
77	32189	52	0.973
77	32840	53	2.8447461942719
77	33315	54	0.973
77	33873	55	4.4886186713614
77	34776	56	0.973
77	35499	57	1.4525829350742
77	36121	58	3.1139683518959
77	37124	59	2.7575338678031
77	37680	60	0.973
77	38130	61	0.973
77	38918	62	6.3575462371673
77	39392	63	8.6341797753448
77	39892	64	1.3392177742778
77	40789	65	2.9693261375509
77	41306	66	0.973
76	1802	9	1.44122821528
76	2667	10	1.3487495984649
76	3426	11	1.345416817721
76	3969	12	2.2234757866245
76	4927	13	2.1985542118549
76	5591	14	2.1126609808765
76	6423	15	1.5393863162491
76	7109	16	2.3195036090445
76	8050	17	1.3405148935504
76	8495	18	2.0839371153619
76	9550	19	-0.20197435717376
76	10089	20	-4.5
76	10991	21	-3.8041078943215
76	11586	22	-4.5
76	12412	23	0.11812239404912
76	13121	24	0.063996069156564
76	13842	25	1.66553854011
76	14621	26	2.5442749146605
76	15244	27	1.9744566840911
76	16053	28	-0.45932249459438
76	16608	29	0.060846543498338
76	17283	30	-0.67425816624891
76	17931	31	1.1214616226032
76	18496	32	-1.0159429875802
76	19179	33	-3.9110253500985
76	19788	34	1.9396853506798
76	20434	35	1.5178245727206
76	20947	36	0.43462514964801
76	22077	37	0.51270182300359
76	22578	38	0.052386204083449
76	23348	39	-0.38703907874878
76	23979	40	0.1010216970928
76	24602	41	-0.33149839171674
76	25198	42	0.77411215933971
76	26000	43	0.010553128947503
76	26445	44	-0.33796728607267
76	27066	45	-1.3914510445317
76	28013	46	-3.7476210912107
76	28802	47	2.1027158158598
76	29331	48	1.4943994782399
76	30012	49	2.1340426791689
76	30787	50	-0.68196911427658
76	31324	51	0.49590342410374
76	32189	52	-0.55560136057902
76	32840	53	0.32084219816607
76	33315	54	-0.72714371730108
76	33873	55	0.85750560234301
76	34776	56	-0.5091593883466
76	35499	57	-0.13491621774156
76	36121	58	0.41703787713777
76	37124	59	0.28180953292176
76	37680	60	-0.37889241065679
76	38130	61	-4.5
76	38918	62	2.003805270372
76	39392	63	2.3342120763147
76	39892	64	-0.17420136789477
76	40789	65	0.37200470308307
76	41306	66	-0.47584401469212
68	1427	8	1.5165522359312
68	1802	9	2.9577804512111
68	2667	10	4.3065300496761
68	3426	11	5.6519468673971
68	3969	12	7.8754226540215
68	4927	13	10.073976865876
68	5591	14	12.186637846753
68	6423	15	13.726024163002
68	7109	16	16.045527772047
68	8050	17	17.386042665597
68	8495	18	19.469979780959
68	9550	19	19.268005423785
68	10089	20	14.768005423785
68	10991	21	10.963897529464
68	11586	22	6.4638975294637
68	12412	23	6.5820199235128
68	13121	24	6.6460159926694
68	13842	25	8.3115545327794
68	14621	26	10.85582944744
68	15244	27	12.830286131531
68	16053	28	12.370963636937
68	16608	29	12.431810180435
68	17283	30	11.757552014186
68	17931	31	12.879013636789
68	18496	32	11.863070649209
68	19179	33	7.9520452991106
68	19788	34	9.8917306497904
68	20434	35	11.409555222511
68	20947	36	11.844180372159
68	22077	37	12.356882195163
68	22578	38	12.409268399246
68	23348	39	12.022229320497
68	23979	40	12.12325101759
68	24602	41	11.791752625873
68	25198	42	12.565864785213
68	26000	43	12.576417914161
68	26445	44	12.238450628088
68	27066	45	10.846999583556
68	28013	46	7.0993784923454
68	28802	47	9.2020943082053
68	29331	48	10.696493786445
68	30012	49	12.830536465614
68	30787	50	12.148567351338
68	31324	51	12.644470775441
68	32189	52	12.088869414862
68	32840	53	12.409711613028
68	33315	54	11.682567895727
68	33873	55	12.54007349807
68	34776	56	12.030914109724
68	35499	57	11.895997891982
68	36121	58	12.31303576912
68	37124	59	12.594845302042
68	37680	60	12.215952891385
68	38130	61	7.7159528913848
68	38918	62	9.7197581617568
68	39392	63	12.053970238071
68	39892	64	11.879768870177
68	40789	65	12.25177357326
68	41306	66	11.775929558568
49	1012	7	2348.7265777778
49	1427	8	2349.8823029188
49	1802	9	2352.1363507174
49	2667	10	2355.4182456175
49	3426	11	2359.7254477932
49	3969	12	2365.7271032202
49	4927	13	2373.4042198125
49	5591	14	2382.6913405656
49	6423	15	2393.1515877204
49	7109	16	2405.3794684403
49	8050	17	2418.6289208065
49	8495	18	2433.4664876203
49	9550	19	2448.1501350129
49	10089	20	2459.4044490721
49	10991	21	2467.7597511302
49	11586	22	2472.6857198548
49	12412	23	2478.2312764288
49	13121	24	2484.0730376485
49	13842	25	2489.339414137
49	14621	26	2496.2178969454
49	15244	27	2504.3474372085
49	16053	28	2512.1859410383
49	16608	29	2520.0632071529
49	17283	30	2527.5135211712
49	17931	31	2535.6744628132
49	18496	32	2543.1916399817
49	19179	33	2548.2305489735
49	19788	34	2554.5692442903
49	20434	35	2562.5257355647
49	20947	36	2570.8463930827
49	22077	37	2579.5272288608
49	22578	38	2588.2430244261
49	23348	39	2596.6851238468
49	23979	40	2605.1974948869
49	24602	41	2613.4763100607
49	25198	42	2623.0008490383
49	26000	43	2632.8558759106
49	26445	44	2642.4460676995
49	27066	45	2650.9459023193
49	28013	46	2656.509057607
49	28802	47	2663.828887844
49	29331	48	2672.8320579744
49	30012	49	2683.8437321351
49	30787	50	2694.2701134131
49	31324	51	2705.122098635
49	32189	52	2715.5100123017
49	32840	53	2726.2911823594
49	33315	54	2736.4581634706
49	33873	55	2747.3714054501
49	34776	56	2757.8415416047
49	35499	57	2768.0793518299
49	36121	58	2778.5249902606
49	37124	59	2789.0924601792
49	37680	60	2799.3420274912
49	38130	61	2805.8159537776
49	38918	62	2814.1861174919
49	39392	63	2825.8389083328
49	39892	64	2837.7113755626
49	40789	65	2849.9556188509
49	41306	66	2861.7243105917
48	1012	7	6045.8273155556
48	1427	8	6044.845218795
48	1802	9	6042.9298039938
48	2667	10	6040.140958934
48	3426	11	6036.4808418753
48	3969	12	6031.3808348375
48	4927	13	6024.8570766632
48	5591	14	6016.9651905364
48	6423	15	6008.076420637
48	7109	16	5997.6855745633
48	8050	17	5986.4266309041
48	8495	18	5973.8181604421
48	9550	19	5961.3404855816
48	10089	20	5951.7769440544
48	10991	21	5944.6768864424
48	11586	22	5940.4909621638
48	12412	23	5937.0581135842
48	13121	24	5938.9000432507
48	13842	25	5945.3308847159
48	14621	26	5953.7302903716
48	15244	27	5963.6573787086
48	16053	28	5973.2290786363
48	16608	29	5982.8476860771
48	17283	30	5991.9443815652
48	17931	31	6001.9087402259
48	18496	32	6011.0870743826
48	19179	33	6017.2394889759
48	19788	34	6024.8324120516
48	20434	35	6033.0084390418
48	20947	36	6041.4366912691
48	22077	37	6050.229779234
48	22578	38	6059.061962694
48	23348	39	6067.6205048654
48	23979	40	6076.2516210772
48	24602	41	6084.647510405
48	25198	42	6092.8125302362
48	26000	43	6100.6245007525
48	26445	44	6108.226539435
48	27066	45	6114.9642640809
48	28013	46	6119.3741155859
48	28802	47	6124.9479977612
48	29331	48	6130.7183744129
48	30012	49	6137.3063133059
48	30787	50	6143.544089845
48	31324	51	6150.03649186
48	32189	52	6156.221939906
48	32840	53	6162.3698609153
48	33315	54	6168.1269525799
48	33873	55	6174.3066172951
48	34776	56	6180.2353716542
48	35499	57	6186.2870842019
48	36121	58	6192.7993145663
48	37124	59	6199.6529198446
48	37680	60	6206.3003472014
48	38130	61	6210.4990566096
48	38918	62	6215.4111527408
48	39392	63	6218.0573263718
48	39892	64	6218.5075941942
48	40789	65	6218.9719617645
48	41306	66	6219.4182938621
12	146	3	1.449073369372
12	232	4	0.973
12	341	5	0.973
12	664	6	0.973
12	1012	7	0.973
12	1427	8	3.5343836788024
12	1802	9	3.7498511457013
12	2667	10	2.3192868037086
12	3426	11	3.1881129026655
12	3969	12	7.214472918331
12	4927	13	9.126213343845
12	5591	14	8.8116601082678
12	6423	15	1.4846670797951
12	7109	16	5.2938773527775
12	8050	17	0.973
12	8495	18	6.1576557535633
12	9550	19	0.973
12	10089	20	2.4545377272471
12	10991	21	1.9958693510332
12	11586	22	2.4914709571038
12	12412	23	2.5682169479782
12	13121	24	4.8191854552847
12	13842	25	0.973
12	14621	26	0.973
12	15244	27	4.2814262072202
12	16053	28	2.1153721686623
12	16608	29	0.973
12	17283	30	3.0456920719016
12	17931	31	0.973
12	18496	32	2.6139577096904
12	19179	33	1.9764637434556
12	19788	34	5.1190436628828
12	20434	35	0.973
12	20947	36	4.7424189797469
12	22077	37	0.973
12	22578	38	4.3207684100512
12	23348	39	2.1318553531202
12	23979	40	0.973
12	24602	41	0.973
12	25198	42	4.9183989819761
12	26000	43	0.973
12	26445	44	4.6195040149029
12	27066	45	5.0083717803442
12	28013	46	5.8246481460644
12	28802	47	4.1608854381712
12	29331	48	0.973
12	30012	49	0.973
12	30787	50	4.1378402136975
12	31324	51	6.0519089767651
12	32189	52	6.0163373201827
12	32840	53	7.8103579303786
12	33315	54	10.40960906337
12	33873	55	1.7210616676075
12	34776	56	1.1679368744968
12	35499	57	4.5127087239925
12	36121	58	3.703587018011
12	37124	59	1.5945389162213
12	37680	60	3.2337226030162
12	38130	61	0.973
12	38918	62	4.0367983801013
12	39392	63	0.973
12	39892	64	1.5506440440579
12	40789	65	6.2807390332033
12	41306	66	0.973
12	41952	67	1.900161787403
12	42748	68	2.8256512344813
11	146	3	-0.19634001890663
11	232	4	-0.71835363695864
11	341	5	-1.8257047914134
11	664	6	-4.4479361484293
11	1012	7	-4.5
11	1427	8	1.6594952662708
11	1802	9	1.398754352401
11	2667	10	0.47198592942691
11	3426	11	0.84077007367741
11	3969	12	2.2169354937272
11	4927	13	2.3636888966663
11	5591	14	1.91023722135
11	6423	15	-0.17183585401852
11	7109	16	0.84852697364986
11	8050	17	-0.90654725597706
11	8495	18	1.0672538143815
11	9550	19	-0.96059726236854
11	10089	20	0.10180837530643
11	10991	21	-0.028117829351686
11	11586	22	0.10924501034897
11	12412	23	0.12604864076711
11	13121	24	0.70308583157603
11	13842	25	-0.38355122089852
11	14621	26	-0.53667809080798
11	15244	27	0.58183064179029
11	16053	28	-0.011844497639686
11	16608	29	-0.7330730112968
11	17283	30	0.26576814083382
11	17931	31	-0.32310318446252
11	18496	32	0.15050020792987
11	19179	33	-0.031313606002369
11	19788	34	0.80161464875564
11	20434	35	-0.97764421862084
11	20947	36	0.71916962184478
11	22077	37	-0.48218579501845
11	22578	38	0.59454660795163
11	23348	39	-0.0066459599555611
11	23979	40	-4.5
11	24602	41	-4.5
11	25198	42	1.7819565048095
11	26000	43	-0.55191883631051
11	26445	44	1.4329721584218
11	27066	45	1.3592640440213
11	28013	46	1.4410100524314
11	28802	47	0.76847243829389
11	29331	48	-3.9099736046589
11	30012	49	-3.7170524989371
11	30787	50	1.7358635865385
11	31324	51	2.157548655523
11	32189	52	1.7307374342177
11	32840	53	1.9978159122868
11	33315	54	2.3476496917428
11	33873	55	-0.10735222929761
11	34776	56	-0.26175374507438
11	35499	57	0.65790316273924
11	36121	58	0.40953698498197
11	37124	59	-0.15669883855153
11	37680	60	0.27681148459669
11	38130	61	-1.1486279197736
11	38918	62	0.53165988763794
11	39392	63	-0.44045267051552
11	39892	64	-0.15031289027538
11	40789	65	1.1036924114218
11	41306	66	-0.98537737547886
11	41952	67	-0.050587036390789
11	42748	68	0.2076668420108
6	39	2	15.406206221476
6	146	3	15.209866202569
6	232	4	14.49151256561
6	341	5	12.665807774197
6	664	6	8.2178716257677
6	1012	7	3.7178716257677
6	1427	8	5.3773668920385
6	1802	9	6.7761212444395
6	2667	10	7.2481071738664
6	3426	11	8.0888772475438
6	3969	12	10.305812741271
6	4927	13	12.669501637937
6	5591	14	14.579738859287
6	6423	15	14.407903005269
6	7109	16	15.256429978919
6	8050	17	14.349882722942
6	8495	18	15.417136537323
6	9550	19	14.456539274955
6	10089	20	14.558347650261
6	10991	21	14.530229820909
6	11586	22	14.639474831258
6	12412	23	14.765523472025
6	13121	24	15.468609303601
6	13842	25	15.085058082703
6	14621	26	14.548379991895
6	15244	27	15.130210633685
6	16053	28	15.118366136046
6	16608	29	14.385293124749
6	17283	30	14.651061265583
6	17931	31	14.32795808112
6	18496	32	14.47845828905
6	19179	33	14.447144683048
6	19788	34	15.248759331803
6	20434	35	14.271115113182
6	20947	36	14.990284735027
6	22077	37	14.508098940009
6	22578	38	15.10264554796
6	23348	39	15.095999588005
6	23979	40	10.595999588005
6	24602	41	6.0959995880047
6	25198	42	7.8779560928143
6	26000	43	7.3260372565038
6	26445	44	8.7590094149255
6	27066	45	10.118273458947
6	28013	46	11.559283511378
6	28802	47	12.327755949672
6	29331	48	8.4177823450131
6	30012	49	4.700729846076
6	30787	50	6.4365934326145
6	31324	51	8.5941420881375
6	32189	52	10.324879522355
6	32840	53	12.322695434642
6	33315	54	14.670345126385
6	33873	55	14.562992897087
6	34776	56	14.301239152013
6	35499	57	14.959142314752
6	36121	58	15.368679299734
6	37124	59	15.211980461182
6	37680	60	15.488791945779
6	38130	61	14.340164026006
6	38918	62	14.871823913643
6	39392	63	14.431371243128
6	39892	64	14.281058352853
6	40789	65	15.384750764274
6	41306	66	14.399373388796
6	41952	67	14.348786352405
6	42748	68	14.556453194416
1	2	1	3130.1488200841
1	39	2	3114.829674286
1	146	3	3099.702533817
1	232	4	3085.285811306
1	341	5	3072.6859290908
1	664	6	3064.5121373951
1	1012	7	3060.8142081009
1	1427	8	3055.4415790458
1	1802	9	3049.594001058
1	2667	10	3052.5172636325
1	3426	11	3057.8637762857
1	3969	12	3064.4566925682
1	4927	13	3072.6012093662
1	5591	14	3080.0255396449
1	6423	15	3086.9661265741
1	7109	16	3092.6236587574
1	8050	17	3092.5091829721
1	8495	18	3092.3861931995
1	9550	19	3091.8378343952
1	10089	20	3088.6910037027
1	10991	21	3087.130930138
1	11586	22	3086.4805715673
1	12412	23	3082.8664275476
1	13121	24	3082.2630062858
1	13842	25	3081.6745471293
1	14621	26	3082.5456632031
1	15244	27	3095.0004475584
1	16053	28	3110.083430522
1	16608	29	3124.2642118174
1	17283	30	3131.3662393737
1	17931	31	3130.7132264383
1	18496	32	3129.7420930632
1	19179	33	3128.7730600284
1	19788	34	3127.7502592012
1	20434	35	3126.6734506037
1	20947	36	3124.9612026295
1	22077	37	3122.9553183396
1	22578	38	3119.1003683313
1	23348	39	3112.4983663098
1	23979	40	3108.1021052514
1	24602	41	3106.4630649299
1	25198	42	3105.1950872894
1	26000	43	3099.8474271067
1	26445	44	3091.6061005441
1	27066	45	3082.2078416393
1	28013	46	3071.9387494529
1	28802	47	3061.2166932551
1	29331	48	3054.5472977735
1	30012	49	3051.0795769282
1	30787	50	3048.9442936587
1	31324	51	3052.364798668
1	32189	52	3058.9309063831
1	32840	53	3069.5098434269
1	33315	54	3083.885898136
1	33873	55	3097.6906815181
1	34776	56	3107.7050643873
1	35499	57	3115.0353238917
1	36121	58	3121.2948791733
1	37124	59	3127.4906121171
1	37680	60	3133.799088437
1	38130	61	3139.6397366618
1	38918	62	3145.7861163698
1	39392	63	3151.7671722746
1	39892	64	3157.6859312718
1	40789	65	3164.0621136076
1	41306	66	3169.6947446936
1	41952	67	3174.8690036064
1	42748	68	3180.079751856
0	2	1	3622.4791520242
0	39	2	3624.1078358025
0	146	3	3625.6847281593
0	232	4	3627.1483785473
0	341	5	3628.4330729982
0	664	6	3629.2793494111
0	1012	7	3629.6622158279
0	1427	8	3629.8204743811
0	1802	9	3627.7001215546
0	2667	10	3621.3631084805
0	3426	11	3615.3040981142
0	3969	12	3607.3835980068
0	4927	13	3597.6795166048
0	5591	14	3585.1504040044
0	6423	15	3572.5262302336
0	7109	16	3558.7082898673
0	8050	17	3544.3594656529
0	8495	18	3528.9434663493
0	9550	19	3514.5090884663
0	10089	20	3500.2991136747
0	10991	21	3485.9106955485
0	11586	22	3471.2848539128
0	12412	23	3457.365311668
0	13121	24	3441.9076101235
0	13842	25	3426.833189337
0	14621	26	3412.4913946823
0	15244	27	3408.0769806895
0	16053	28	3407.0309400556
0	16608	29	3405.4357501097
0	17283	30	3393.6262774603
0	17931	31	3379.3470402544
0	18496	32	3364.900375721
0	19179	33	3350.484956031
0	19788	34	3335.269681986
0	20434	35	3321.0413747483
0	20947	36	3306.1536781953
0	22077	37	3291.7851700271
0	22578	38	3277.3655710781
0	23348	39	3263.7900475298
0	23979	40	3254.1693977333
0	24602	41	3248.3109111759
0	25198	42	3240.7337983461
0	26000	43	3234.3746267689
0	26445	44	3231.6826199148
0	27066	45	3228.2186902042
0	28013	46	3223.1716500428
0	28802	47	3217.3459836513
0	29331	48	3212.3786940707
0	30012	49	3209.2938955228
0	30787	50	3203.4897509965
0	31324	51	3195.7441982461
0	32189	52	3187.8340615602
0	32840	53	3182.1942918724
0	33315	54	3179.9525460083
0	33873	55	3177.3207595831
0	34776	56	3167.7115008098
0	35499	57	3154.7047991128
0	36121	58	3140.6674618684
0	37124	59	3126.7732491177
0	37680	60	3112.6262042214
0	38130	61	3099.5282850934
0	38918	62	3085.9849542859
0	39392	63	3072.8502612592
0	39892	64	3059.8523753062
0	40789	65	3045.8499651972
0	41306	66	3032.6034410223
0	41952	67	3019.2190059773
0	42748	68	3005.6378461643
44	664	6	2.9572775987046
44	1012	7	5.4475378523348
44	1427	8	6.1741223065018
44	1802	9	6.0427391267003
44	2667	10	9.3388311865557
44	3426	11	11.610953549582
44	3969	12	0.973
44	4927	13	0.973
44	5591	14	0.973
44	6423	15	2.3950827190471
44	7109	16	2.3406988899712
44	8050	17	4.7864241640101
44	8495	18	5.5711916415606
44	9550	19	7.2550838734078
44	10089	20	10.787521223634
44	10991	21	8.2804225671593
44	11586	22	8.379140440243
44	12412	23	15.316508775544
44	13121	24	1.7213047647403
44	13842	25	3.4688791655567
44	14621	26	6.2314201518352
44	15244	27	0.973
44	16053	28	8.4893712056403
44	16608	29	0.973
44	17283	30	1.4052761239576
44	17931	31	5.8955480585935
44	18496	32	1.6120978231471
44	19179	33	6.4851406274186
44	19788	34	0.973
44	20434	35	5.9420164864427
44	20947	36	0.973
44	22077	37	0.973
44	22578	38	0.973
44	23348	39	0.973
44	23979	40	0.973
44	24602	41	2.7137288436081
44	25198	42	0.973
44	26000	43	6.3279677194056
44	26445	44	7.7114117089334
44	27066	45	9.0106766399649
44	28013	46	11.887143521062
44	28802	47	8.7770212641952
44	29331	48	13.78188599347
44	30012	49	11.070258977237
44	30787	50	14.8205204438
44	31324	51	19.231697278238
44	32189	52	4.369472646823
44	32840	53	0.26412933855054
44	33315	54	4.0337087851799
44	33873	55	2.7850940515957
44	34776	56	11.665416748876
44	35499	57	0.973
44	36121	58	5.8265652318298
44	37124	59	9.7746003594958
44	37680	60	0.973
44	38130	61	8.183602811524
44	38918	62	0.973
44	39392	63	2.6766902239754
44	39892	64	8.2643933089227
44	40789	65	-0.26764121541748
44	41306	66	7.4749150150994
44	41952	67	1.3760301103193
44	42748	68	2.1540335148097
44	43297	69	7.5182783872918
44	43794	70	5.3671234607974
44	44327	71	4.2744992403554
44	44779	72	1.8760312756547
44	45258	73	3.0772071185439
44	45810	74	5.4850844799391
44	46273	75	6.0191740893882
44	46710	76	0.973
44	47284	77	4.7666783649569
44	47705	78	4.8590399399312
44	48333	79	4.8508068220247
44	48870	80	4.3066653674614
44	49425	81	1.4467507691038
44	49920	82	6.5568024414786
44	50577	83	6.178505449795
44	50986	84	0.973
44	51542	85	1.9273172813157
44	52289	86	6.3804177732203
44	52698	87	5.3250760193665
44	53215	88	0.50314339402813
44	53893	89	9.0106343822702
44	54298	90	3.9920952163887
44	54913	91	1.4663164601122
44	55602	92	0.72976657396959
44	56064	93	8.2488578864754
44	56572	94	0.68674564483395
44	57154	95	0.973
44	57613	96	0.973
44	58164	97	0.973
44	58777	98	0.973
44	59386	99	0.973
44	59981	100	0.973
44	60545	101	2.1505470465898
44	61021	102	6.6909465873222
44	61729	103	7.5642220719805
44	62336	104	7.3834908583354
44	62891	105	0.973
44	63553	106	4.6161934620186
44	64076	107	0.973
44	64651	108	3.8792684531892
44	65123	109	1.5869031161191
44	65778	110	0.973
44	66210	111	0.973
44	66911	112	0.973
44	67421	113	3.1092440635986
44	68039	114	0.973
44	68619	115	5.4540938102678
44	69069	116	7.659130157314
44	69579	117	6.8204770657145
44	70211	118	3.6699995318582
44	70780	119	0.973
44	71416	120	3.0535233905083
44	72377	121	1.6824994366513
43	664	6	1.7152554555098
43	1012	7	2.5400754326023
43	1427	8	2.1827345938887
43	1802	9	1.7201388832182
43	2667	10	2.3980328541948
43	3426	11	2.5434896687279
43	3969	12	-4.1477875989375
43	4927	13	-3.3922433504411
43	5591	14	-1.528684944795
43	6423	15	0.55868356751744
43	7109	16	0.47505518533289
43	8050	17	1.4965369990096
43	8495	18	1.5423454139149
43	9550	19	1.8312385037309
43	10089	20	2.4557177811861
43	10991	21	1.5358046896989
43	11586	22	1.3953643303597
43	12412	23	2.5675610542763
43	13121	24	-0.22531734651506
43	13842	25	0.13308490030467
43	14621	26	0.66016111890785
43	15244	27	-0.85841676581185
43	16053	28	1.0919140868587
43	16608	29	-0.71471581941005
43	17283	30	-0.29146575613413
43	17931	31	0.60349475224502
43	18496	32	-0.25562448261772
43	19179	33	0.69291957104579
43	19788	34	-0.8674622946186
43	20434	35	0.60206667578313
43	20947	36	-1.929827014947
43	22077	37	-3.4335225175542
43	22578	38	-4.3879466932345
43	23348	39	-4.5
43	23979	40	-0.19993283007739
43	24602	41	0.72993474320974
43	25198	42	-0.74477013563737
43	26000	43	2.2990668435348
43	26445	44	2.2800610841252
43	27066	45	2.2393480736064
43	28013	46	2.5634366825223
43	28802	47	1.5375947437016
43	29331	48	2.3455069887918
43	30012	49	1.5858694023918
43	30787	50	2.0496117572067
43	31324	51	2.4794851154555
43	32189	52	0.072119462311228
43	32840	53	-0.58200970082544
43	33315	54	0.038728071865627
43	33873	55	-0.16214880694169
43	34776	56	1.2066450342536
43	35499	57	-1.2323529446032
43	36121	58	0.32723410136532
43	37124	59	0.90727428325918
43	37680	60	-0.6941394216381
43	38130	61	0.65780823174864
43	38918	62	-0.73969691828825
43	39392	63	-0.18738429066725
43	39892	64	0.68596308308188
43	40789	65	-0.67119857615326
43	41306	66	0.5659411964938
43	41952	67	-0.40476284981705
43	42748	68	-0.27076134930831
43	43297	69	0.57868970709387
43	43794	70	0.22171132264193
43	44327	71	0.045320957503282
43	44779	72	-0.32920770768542
43	45258	73	-0.13093246680219
43	45810	74	0.24837529144715
43	46273	75	0.31831795880571
43	46710	76	-0.8269507992547
43	47284	77	0.14824027374852
43	47705	78	0.15650496515445
43	48333	79	0.14873934739735
43	48870	80	0.058702518744397
43	49425	81	-0.39266493711621
43	49920	82	0.41913319465239
43	50577	83	0.34095593437087
43	50986	84	-0.74004282928072
43	51542	85	-0.30710388242733
43	52289	86	0.40662952600978
43	52698	87	0.22470632207114
43	53215	88	-0.54366947049275
43	53893	89	0.80082018591929
43	54298	90	0.00024029328487885
43	54913	91	-0.3940034085419
43	55602	92	-0.50472891556565
43	56064	93	0.69248271111865
43	56572	94	-0.51477915558499
43	57154	95	-2.2347127282293
43	57613	96	-3.6991669731913
43	58164	97	-4.4201428569388
43	58777	98	-4.5
43	59386	99	-4.5
43	59981	100	-0.71346339320298
43	60545	101	0.53674697317183
43	61021	102	2.5575819627848
43	61729	103	2.2831686671358
43	62336	104	1.8340304670721
43	62891	105	-0.52677545926999
43	63553	106	0.87531333134975
43	64076	107	-0.37144385671709
43	64651	108	0.61675392338075
43	65123	109	-0.1109323911136
43	65778	110	-0.73160175180528
43	66210	111	-2.4911295466108
43	66911	112	-4.5
43	67421	113	1.1020848307013
43	68039	114	-0.20378651132341
43	68619	115	2.0015709335217
43	69069	116	2.3578330506571
43	69579	117	1.6940583975986
43	70211	118	0.57295708332976
43	70780	119	-2.4918386135708
43	71416	120	0.50692960757269
43	72377	121	-0.022389853163622
36	341	5	2.2737992957234
36	664	6	3.9890547512332
36	1012	7	6.5291301838355
36	1427	8	8.7118647777243
36	1802	9	10.432003660942
36	2667	10	12.830036515137
36	3426	11	15.373526183865
36	3969	12	11.225738584927
36	4927	13	7.8334952344864
36	5591	14	6.3048102896914
36	6423	15	6.8634938572088
36	7109	16	7.3385490425417
36	8050	17	8.8350860415513
36	8495	18	10.377431455466
36	9550	19	12.208669959197
36	10089	20	14.664387740383
36	10991	21	16.200192430082
36	11586	22	17.595556760442
36	12412	23	20.163117814718
36	13121	24	19.937800468203
36	13842	25	20.070885368508
36	14621	26	20.731046487416
36	15244	27	19.872629721604
36	16053	28	20.964543808462
36	16608	29	20.249827989052
36	17283	30	19.958362232918
36	17931	31	20.561856985163
36	18496	32	20.306232502546
36	19179	33	20.999152073591
36	19788	34	20.131689778973
36	20434	35	20.733756454756
36	20947	36	18.803929439809
36	22077	37	15.370406922255
36	22578	38	10.98246022902
36	23348	39	6.4824602290201
36	23979	40	6.2825273989427
36	24602	41	7.0124621421525
36	25198	42	6.2676920065151
36	26000	43	8.5667588500499
36	26445	44	10.846819934175
36	27066	45	13.086168007781
36	28013	46	15.649604690304
36	28802	47	17.187199434005
36	29331	48	19.532706422797
36	30012	49	21.118575825189
36	30787	50	23.168187582396
36	31324	51	25.647672697851
36	32189	52	25.719792160162
36	32840	53	25.137782459337
36	33315	54	25.176510531203
36	33873	55	25.014361724261
36	34776	56	26.221006758515
36	35499	57	24.988653813911
36	36121	58	25.315887915277
36	37124	59	26.223162198536
36	37680	60	25.529022776898
36	38130	61	26.186831008646
36	38918	62	25.447134090358
36	39392	63	25.259749799691
36	39892	64	25.945712882773
36	40789	65	25.274514306619
36	41306	66	25.840455503113
36	41952	67	25.435692653296
36	42748	68	25.164931303988
36	43297	69	25.743621011082
36	43794	70	25.965332333724
36	44327	71	26.010653291227
36	44779	72	25.681445583542
36	45258	73	25.550513116739
36	45810	74	25.798888408187
36	46273	75	26.117206366992
36	46710	76	25.290255567738
36	47284	77	25.438495841486
36	47705	78	25.595000806641
36	48333	79	25.743740154038
36	48870	80	25.802442672782
36	49425	81	25.409777735666
36	49920	82	25.828910930318
36	50577	83	26.169866864689
36	50986	84	25.429824035409
36	51542	85	25.122720152981
36	52289	86	25.529349678991
36	52698	87	25.754056001062
36	53215	88	25.210386530569
36	53893	89	26.011206716489
36	54298	90	26.011447009774
36	54913	91	25.617443601232
36	55602	92	25.112714685666
36	56064	93	25.805197396785
36	56572	94	25.2904182412
36	57154	95	23.05570551297
36	57613	96	19.356538539779
36	58164	97	14.93639568284
36	58777	98	10.43639568284
36	59386	99	5.9363956828404
36	59981	100	5.2229322896374
36	60545	101	5.7596792628093
36	61021	102	8.317261225594
36	61729	103	10.60042989273
36	62336	104	12.434460359802
36	62891	105	11.907684900532
36	63553	106	12.782998231882
36	64076	107	12.411554375165
36	64651	108	13.028308298545
36	65123	109	12.917375907432
36	65778	110	12.185774155626
36	66210	111	9.6946446090156
36	66911	112	5.1946446090156
36	67421	113	6.2967294397169
36	68039	114	6.0929429283935
36	68619	115	8.0945138619152
36	69069	116	10.452346912572
36	69579	117	12.146405310171
36	70211	118	12.719362393501
36	70780	119	10.22752377993
36	71416	120	10.734453387503
36	72377	121	10.712063534339
18	232	4	2297.5291637801
18	341	5	2296.0307584802
18	664	6	2293.4020212858
18	1012	7	2289.0994061474
18	1427	8	2283.3583962086
18	1802	9	2276.4838362577
18	2667	10	2267.5865898439
18	3426	11	2256.8172479545
18	3969	12	2248.9534816763
18	4927	13	2243.4660230829
18	5591	14	2240.5263778958
18	6423	15	2242.8755421433
18	7109	16	2248.1616245131
18	8050	17	2254.688961677
18	8495	18	2262.3557793725
18	9550	19	2271.3755110164
18	10089	20	2282.2081424908
18	10991	21	2294.1766486798
18	11586	22	2307.1779757335
18	12412	23	2322.0764692963
18	13121	24	2336.8084762539
18	13842	25	2351.6388194186
18	14621	26	2366.9569545147
18	15244	27	2381.6408069181
18	16053	28	2397.1123161855
18	16608	29	2410.9981092344
18	17283	30	2424.3210654257
18	17931	31	2437.9895597472
18	18496	32	2451.2031247982
18	19179	33	2464.7215677156
18	19788	34	2477.6820299759
18	20434	35	2491.0300932034
18	20947	36	2503.4536832286
18	22077	37	2513.6347462629
18	22578	38	2520.9093174847
18	23348	39	2525.2031749305
18	23979	40	2529.060391024
18	24602	41	2528.3805861627
18	25198	42	2524.6784266578
18	26000	43	2519.4156256567
18	26445	44	2512.7521189786
18	27066	45	2504.7129177711
18	28013	46	2495.0989252832
18	28802	47	2484.3559545364
18	29331	48	2471.9767659659
18	30012	49	2458.5925053918
18	30787	50	2444.1204254631
18	31324	51	2428.3276764918
18	32189	52	2412.3415450933
18	32840	53	2395.9897747715
18	33315	54	2379.5500763607
18	33873	55	2363.217618634
18	34776	56	2346.0977573705
18	35499	57	2329.9034659745
18	36121	58	2313.6193041531
18	37124	59	2296.7519207293
18	37680	60	2280.3340255124
18	38130	61	2263.4519797143
18	38918	62	2246.7873632777
18	39392	63	2230.1862819679
18	39892	64	2213.1409539119
18	40789	65	2196.5302315662
18	41306	66	2179.5545235945
18	41952	67	2162.8773283489
18	42748	68	2146.3825838927
18	43297	69	2129.5085282942
18	43794	70	2112.4891485712
18	44327	71	2095.4610126638
18	44779	72	2078.6617532431
18	45258	73	2061.9444532114
18	45810	74	2045.0310745504
18	46273	75	2027.9454485741
18	46710	76	2011.0936779786
18	47284	77	1994.2117910402
18	47705	78	1977.2306128017
18	48333	79	1960.1507524265
18	48870	80	1943.0141612086
18	49425	81	1926.1316339563
18	49920	82	1908.9706301405
18	50577	83	1891.5830915666
18	50986	84	1874.7536770357
18	51542	85	1858.2551659687
18	52289	86	1841.4896144819
18	52698	87	1824.5776822115
18	53215	88	1808.0434248781
18	53893	89	1791.0861689739
18	54298	90	1774.148365188
18	54913	91	1757.4671235389
18	55602	92	1741.1145448562
18	56064	93	1724.3110440745
18	56572	94	1707.8427506469
18	57154	95	1693.279922694
18	57613	96	1681.8628827009
18	58164	97	1673.0560318819
18	58777	98	1666.9024870897
18	59386	99	1663.4022483245
18	59981	100	1659.3737406128
18	60545	101	1654.1093971641
18	61021	102	1647.2801632431
18	61729	103	1638.5762385453
18	62336	104	1628.3664067058
18	62891	105	1618.5891058087
18	63553	106	1608.0930924254
18	64076	107	1597.9020684992
18	64651	108	1587.2046330632
18	65123	109	1576.5982832897
18	65778	110	1566.5926456213
18	66210	111	1558.6324536759
18	66911	112	1554.3671742517
18	67421	113	1550.5233388017
18	68039	114	1552.5261684142
18	68619	115	1556.8029748047
18	69069	116	1562.3255626752
18	69579	117	1568.7432209483
18	70211	118	1575.4321540103
18	70780	119	1578.6983785169
18	71416	120	1579.871228805
18	72377	121	1584.7301446543
17	232	4	6655.7244326577
17	341	5	6654.0143718104
17	664	6	6651.0143153142
17	1012	7	6646.1039391365
17	1427	8	6639.5519893263
17	1802	9	6631.706371178
17	2667	10	6622.4676371146
17	3426	11	6611.49779312
17	3969	12	6603.487620338
17	4927	13	6597.8979970059
17	5591	14	6592.4533289851
17	6423	15	6586.3439826545
17	7109	16	6581.2688688652
17	8050	17	6575.3141051368
17	8495	18	6568.3198153093
17	9550	19	6560.0912881955
17	10089	20	6550.2061208417
17	10991	21	6539.2871802122
17	11586	22	6527.4298923773
17	12412	23	6513.8423773681
17	13121	24	6500.4066991361
17	13842	25	6486.8813376965
17	14621	26	6472.9111071056
17	15244	27	6459.5193461142
17	16053	28	6445.3729317377
17	16608	29	6430.6536473924
17	17283	30	6415.7934270252
17	17931	31	6400.4329089959
17	18496	32	6385.01606447
17	19179	33	6368.9472681495
17	19788	34	6353.5426492346
17	20434	35	6337.6773333886
17	20947	36	6323.5629206624
17	22077	37	6312.0481441194
17	22578	38	6303.8206081752
17	23348	39	6298.9642578284
17	23979	40	6294.0209601873
17	24602	41	6287.3657042632
17	25198	42	6282.3188559806
17	26000	43	6275.561483094
17	26445	44	6267.005621045
17	27066	45	6256.6833838451
17	28013	46	6244.3391336718
17	28802	47	6230.9139813535
17	29331	48	6215.8059282793
17	30012	49	6199.4712454395
17	30787	50	6181.3822551561
17	31324	51	6161.1747782977
17	32189	52	6141.0338069501
17	32840	53	6121.9453333269
17	33315	54	6102.8785253383
17	33873	55	6083.9333432574
17	34776	56	6064.0738998254
17	35499	57	6045.0367633386
17	36121	58	6025.6534455111
17	37124	59	6005.5751528328
17	37680	60	5986.0258215558
17	38130	61	5966.0055252408
17	38918	62	5946.7727532825
17	39392	63	5927.7369129659
17	39892	64	5908.178400374
17	40789	65	5889.1313790377
17	41306	66	5869.6535345127
17	41952	67	5850.4503895119
17	42748	68	5831.4436287859
17	43297	69	5811.9997908963
17	43794	70	5792.3884971926
17	44327	71	5772.7222094062
17	44779	72	5753.298669817
17	45258	73	5733.9773548114
17	45810	74	5714.497318162
17	46273	75	5694.7423206852
17	46710	76	5675.8812919243
17	47284	77	5656.8552369854
17	47705	78	5637.7080425041
17	48333	79	5618.4495785905
17	48870	80	5599.1577274965
17	49425	81	5580.166537931
17	49920	82	5560.8620895077
17	50577	83	5541.3028116698
17	50986	84	5522.2414765084
17	51542	85	5503.293561885
17	52289	86	5484.0389614611
17	52698	87	5464.6138503353
17	53215	88	5445.5847245412
17	53893	89	5425.8638096214
17	54298	90	5406.1218228073
17	54913	91	5386.6788739549
17	55602	92	5367.6190007382
17	56064	93	5348.0335518183
17	56572	94	5328.8388063951
17	57154	95	5310.9710146155
17	57613	96	5295.3400619466
17	58164	97	5283.2761620982
17	58777	98	5274.8468438765
17	59386	99	5270.0521072815
17	59981	100	5266.9212014325
17	60545	101	5268.9102845125
17	61021	102	5273.6573531424
17	61729	103	5279.707538034
17	62336	104	5286.8044940033
17	62891	105	5293.6007933995
17	63553	106	5300.896677015
17	64076	107	5307.9805594162
17	64651	108	5315.41645351
17	65123	109	5322.7890330511
17	65778	110	5329.744051615
17	66210	111	5335.2772604505
17	66911	112	5338.2420987305
17	67421	113	5342.9555659774
17	68039	114	5348.5568290418
17	68619	115	5355.429301563
17	69069	116	5364.303641414
17	69579	117	5374.6162850329
17	70211	118	5385.4332172768
17	70780	119	5394.6604499848
17	71416	120	5404.9406599551
17	72377	121	5414.4839339146
22	232	4	2.4001547411577
22	341	5	3.2530756376456
22	664	6	4.2620133502382
22	1012	7	4.4331748928246
22	1427	8	6.958450498276
22	1802	9	9.94768142871
22	2667	10	6.3349837681206
22	3426	11	1.3288766503154
22	3969	12	2.5206877193237
22	4927	13	0.973
22	5591	14	0.973
22	6423	15	0.973
22	7109	16	3.3481396480497
22	8050	17	3.2177198178088
22	8495	18	4.6072312500879
22	9550	19	8.4525140820665
22	10089	20	2.4159105362471
22	10991	21	0.973
22	11586	22	5.5780161992299
22	12412	23	5.910403910094
22	13121	24	5.6875588038501
22	13842	25	8.9763891930253
22	14621	26	0.973
22	15244	27	2.6622634980461
22	16053	28	1.6476493376164
22	16608	29	2.1808993406285
22	17283	30	0.973
22	17931	31	0.973
22	18496	32	0.973
22	19179	33	0.973
22	19788	34	0.973
22	20434	35	4.9595249015647
22	20947	36	6.8790009612496
22	22077	37	6.3702681803426
22	22578	38	10.528021362992
22	23348	39	12.231490940523
22	23979	40	7.058899589822
22	24602	41	0.973
22	25198	42	2.4840901556975
22	26000	43	3.0859123308602
22	26445	44	4.1593143589672
22	27066	45	3.3073051659519
22	28013	46	0.973
22	28802	47	5.1147659214677
22	29331	48	1.5989142345637
22	30012	49	3.2876689340378
22	30787	50	1.9571341647103
22	31324	51	3.2309298878522
22	32189	52	0.96499686912886
22	32840	53	0.88159689380718
22	33315	54	6.4182539490574
22	33873	55	0.973
22	34776	56	0.87005168881485
22	35499	57	4.4057933673596
22	36121	58	10.002148938143
22	37124	59	16.293260698746
22	37680	60	12.415443166791
22	38130	61	16.480647238138
22	38918	62	19.307646302815
22	39392	63	3.5312447551539
22	39892	64	4.5480120536569
22	40789	65	3.5517212121023
22	41306	66	0.973
22	41952	67	0.973
22	42748	68	0.973
22	43297	69	0.973
22	43794	70	0.973
22	44327	71	0.973
22	44779	72	0.973
22	45258	73	0.973
22	45810	74	0.973
22	46273	75	0.973
22	46710	76	1.1103184899316
22	47284	77	1.1100366302067
22	47705	78	0.973
22	48333	79	1.1100052531062
22	48870	80	0.973
22	49425	81	0.973
22	49920	82	0.973
22	50577	83	0.973
22	50986	84	0.973
22	51542	85	0.973
22	52289	86	0.973
22	52698	87	0.973
22	53215	88	0.973
22	53893	89	0.973
22	54298	90	0.973
22	54913	91	0.973
22	55602	92	0.973
22	56064	93	0.973
22	56572	94	0.973
22	57154	95	0.973
22	57613	96	2.6574367884678
22	58164	97	4.3729793009887
22	58777	98	4.5204300493654
22	59386	99	5.2308638459135
22	59981	100	5.8808918311335
22	60545	101	7.6292353942418
22	61021	102	7.6583654761371
22	61729	103	8.7815737657281
22	62336	104	8.0217133735861
22	62891	105	11.611226006294
22	63553	106	13.942343599603
22	64076	107	0.973
22	64651	108	0.973
22	65123	109	0.973
22	65778	110	0.973
22	66210	111	0.973
22	66911	112	0.973
22	67421	113	0.973
22	68039	114	1.1104217810122
22	68619	115	2.3479941789604
22	69069	116	3.5684048159571
22	69579	117	5.4016815018181
22	70211	118	6.6674660329992
22	70780	119	5.2488800031469
22	71416	120	6.6007716265786
22	72377	121	9.3415545044737
22	73227	122	12.862972616332
22	73721	123	11.350729676824
22	74225	124	0.973
22	74855	125	0.973
22	75281	126	0.973
22	76081	127	0.973
22	76449	128	0.973
22	76879	129	0.973
22	77363	130	1.1138846911042
22	77737	131	1.1110604654594
22	78175	132	1.1100775757831
22	78916	133	1.1100570451391
22	79304	134	1.1100114438164
22	79750	135	1.1100093748528
22	80317	136	0.973
22	80685	137	0.973
22	81124	138	0.973
22	81881	139	0.973
22	82253	140	0.973
22	82688	141	1.6456778736435
22	83199	142	2.8009120131232
22	83568	143	3.7404438867986
22	84002	144	5.579466675537
22	84452	145	5.7219029792596
22	84878	146	8.6203673245996
22	85446	147	6.1134671930552
22	85937	148	6.6998980536976
22	86279	149	12.475656327846
22	86842	150	13.183278462113
22	87331	151	9.9447509729756
22	87729	152	14.547617595221
22	88438	153	15.622888219318
22	88936	154	20.082898377965
22	89295	155	13.876189466223
22	89885	156	0.973
22	90345	157	0.973
22	90819	158	0.973
22	91345	159	0.973
22	91807	160	0.973
22	92196	161	0.973
22	92659	162	2.0623888887328
22	93105	163	5.2763401570414
22	93490	164	6.7821574361769
22	94003	165	6.8454080769357
22	94451	166	10.462213379451
22	94915	167	7.255214140651
22	95400	168	8.9281654661147
22	95966	169	10.581679599724
22	96289	170	15.296445008452
22	96892	171	5.8071686215776
22	97367	172	4.3998272355594
22	97862	173	7.7607406925477
22	98369	174	0.973
22	98939	175	2.9844639141196
22	99394	176	2.0492502941875
22	99826	177	3.3422575284415
22	100350	178	4.2661833887834
22	100741	179	7.9771575190301
22	101506	180	1.4498895180597
22	101942	181	0.973
22	102381	182	6.3606764047734
21	232	4	1.4015385301784
21	341	5	1.5948854350485
21	664	6	1.7431896411348
21	1012	7	1.4684440099867
21	1427	8	2.1238328776089
21	1802	9	2.5895389665384
21	2667	10	1.2596902379261
21	3426	11	-0.2089500667993
21	3969	12	0.1409852320794
21	4927	13	-1.7949582040213
21	5591	14	-3.1270641825026
21	6423	15	-4.5
21	7109	16	1.3428612101357
21	8050	17	1.0310144632744
21	8495	18	1.4834439461352
21	9550	19	2.5224465359235
21	10089	20	0.23368179460696
21	10991	21	-4.3205626315554
21	11586	22	1.8783325833268
21	12412	23	1.6627437446266
21	13121	24	1.3544627618045
21	13842	25	2.0762364685014
21	14621	26	-0.58237381922081
21	15244	27	0.20654025857802
21	16053	28	-0.1027150769718
21	16608	29	0.060195035440847
21	17283	30	-0.35468478500843
21	17931	31	-2.2995637368475
21	18496	32	-0.48274996796354
21	19179	33	-2.8203771996854
21	19788	34	-0.22333251610398
21	20434	35	1.5723745738156
21	20947	36	1.9658654733561
21	22077	37	1.5106369118206
21	22578	38	2.3733535988489
21	23348	39	2.3868201323086
21	23979	40	1.035106779933
21	24602	41	-0.56296366895549
21	25198	42	0.0058317887131132
21	26000	43	0.14224470104091
21	26445	44	0.37374367048033
21	27066	45	0.17122148098424
21	28013	46	-0.64091380161699
21	28802	47	0.58543085923884
21	29331	48	-0.2115704899421
21	30012	49	0.17072858836036
21	30787	50	-0.12997809518129
21	31324	51	0.15668555907905
21	32189	52	-0.35585692054592
21	32840	53	-0.3713619570015
21	33315	54	0.87203836154658
21	33873	55	-0.52887759525329
21	34776	56	-0.37379506279249
21	35499	57	0.44227210050449
21	36121	58	1.5539126807358
21	37124	59	2.4896196572576
21	37680	60	1.5838272215333
21	38130	61	2.0457452738192
21	38918	62	2.2228814614471
21	39392	63	-0.12966054207366
21	39892	64	0.022077035671099
21	40789	65	-0.12310551067349
21	41306	66	-1.1718699767846
21	41952	67	-4.4353926461516
21	42748	68	-4.5
21	43297	69	-4.5
21	43794	70	-4.5
21	44327	71	-4.2217370608091
21	44779	72	-2.7645899410892
21	45258	73	-0.90175307627305
21	45810	74	-0.42633914836774
21	46273	75	-0.10705958185433
21	46710	76	-0.0073443739454193
21	47284	77	-0.0060705843009484
21	47705	78	-0.00078308175319141
21	48333	79	0.00010883605947868
21	48870	80	-0.00010883605947868
21	49425	81	0
21	49920	82	0
21	50577	83	0
21	50986	84	0
21	51542	85	0
21	52289	86	0
21	52698	87	0
21	53215	88	0
21	53893	89	0
21	54298	90	0
21	54913	91	0
21	55602	92	0
21	56064	93	0
21	56572	94	0
21	57154	95	0
21	57613	96	2.4347510638414
21	58164	97	2.5219419202069
21	58777	98	1.85845743299
21	59386	99	1.7645743039437
21	59981	100	1.6875218476402
21	60545	101	1.9556833863026
21	61021	102	1.6801084847422
21	61729	103	1.7408320600167
21	62336	104	1.3740626042476
21	62891	105	1.9580538500799
21	63553	106	2.1492708682556
21	64076	107	-4.5
21	64651	108	-4.2426108303713
21	65123	109	-4.5
21	65778	110	-4.2943838942218
21	66210	111	-2.7577926957384
21	66911	112	-0.64418581204254
21	67421	113	-0.14276598604469
21	68039	114	-0.033046298735968
21	68619	115	2.1622719867853
21	69069	116	2.1516010926804
21	69579	117	2.4220078368206
21	70211	118	2.3136312563904
21	70780	119	1.3997853017179
21	71416	120	1.6285556968767
21	72377	121	2.1254086442757
21	73227	122	2.5931906580226
21	73721	123	1.9327472199453
21	74225	124	-0.45229889777349
21	74855	125	-4.0947975105199
21	75281	126	-4.0886334004579
21	76081	127	-3.3104669728898
21	76449	128	-4.5
21	76879	129	-2.1150403577574
21	77363	130	-0.061877877560514
21	77737	131	-0.079953132129023
21	78175	132	-0.034658969846425
21	78916	133	-0.00075785769642871
21	79304	134	-0.00094866562250234
21	79750	135	-4.3975923487269e-05
21	80317	136	-0.00019438045003231
21	80685	137	0
21	81124	138	0
21	81881	139	0
21	82253	140	0
21	82688	141	1.3938073867466
21	83199	142	1.9156749457354
21	83568	143	1.889049537736
21	84002	144	2.2637285727542
21	84452	145	1.8268597613554
21	84878	146	2.4108930881601
21	85446	147	1.328319246741
21	85937	148	1.335535904672
21	86279	149	2.4892762233969
21	86842	150	2.2781118474668
21	87331	151	1.4215505468892
21	87729	152	2.0685142265167
21	88438	153	2.011885799258
21	88936	154	2.4282673451351
21	89295	155	1.3544754272481
21	89885	156	-4.5
21	90345	157	-4.1906271319855
21	90819	158	-4.4623022006592
21	91345	159	-4.5
21	91807	160	-4.5
21	92196	161	-1.1855587120634
21	92659	162	0.4968567605596
21	93105	163	2.0461609697668
21	93490	164	2.1676475531422
21	94003	165	1.8017255600542
21	94451	166	2.4816894373624
21	94915	167	1.3608374691568
21	95400	168	1.594018972246
21	95966	169	1.7569568049861
21	96289	170	2.4058011588408
21	96892	171	0.51714123493879
21	97367	172	0.23734068211634
21	97862	173	0.81393866601866
21	98369	174	-0.72873410219327
21	98939	175	-0.032045846641996
21	99394	176	-0.20339278932661
21	99826	177	0.041296209790744
21	100350	178	0.20772913382389
21	100741	179	0.84408776401542
21	101506	180	-0.33261841153726
21	101942	181	-0.86799216473009
21	102381	182	0.58781431342941
14	146	3	1.9318736586953
14	232	4	3.3334121888736
14	341	5	4.9282976239221
14	664	6	6.6714872650569
14	1012	7	8.1399312750436
14	1427	8	10.263764152653
14	1802	9	12.853303119191
14	2667	10	14.112993357117
14	3426	11	13.904043290318
14	3969	12	14.045028522397
14	4927	13	12.250070318376
14	5591	14	9.1230061358733
14	6423	15	4.6230061358733
14	7109	16	5.9658673460091
14	8050	17	6.9968818092834
14	8495	18	8.4803257554187
14	9550	19	11.002772291342
14	10089	20	11.236454085949
14	10991	21	6.9158914543938
14	11586	22	8.7942240377206
14	12412	23	10.456967782347
14	13121	24	11.811430544152
14	13842	25	13.887667012653
14	14621	26	13.305293193432
14	15244	27	13.51183345201
14	16053	28	13.409118375039
14	16608	29	13.469313410479
14	17283	30	13.114628625471
14	17931	31	10.815064888623
14	18496	32	10.33231492066
14	19179	33	7.5119377209745
14	19788	34	7.2886052048706
14	20434	35	8.8609797786862
14	20947	36	10.826845252042
14	22077	37	12.337482163863
14	22578	38	14.710835762712
14	23348	39	17.09765589502
14	23979	40	18.132762674953
14	24602	41	17.569799005998
14	25198	42	17.575630794711
14	26000	43	17.717875495752
14	26445	44	18.091619166232
14	27066	45	18.262840647217
14	28013	46	17.6219268456
14	28802	47	18.207357704838
14	29331	48	17.995787214896
14	30012	49	18.166515803257
14	30787	50	18.036537708075
14	31324	51	18.193223267154
14	32189	52	17.837366346608
14	32840	53	17.466004389607
14	33315	54	18.338042751154
14	33873	55	17.8091651559
14	34776	56	17.435370093108
14	35499	57	17.877642193612
14	36121	58	19.431554874348
14	37124	59	21.921174531606
14	37680	60	23.505001753139
14	38130	61	25.550747026958
14	38918	62	27.773628488405
14	39392	63	27.643967946332
14	39892	64	27.666044982003
14	40789	65	27.542939471329
14	41306	66	26.371069494545
14	41952	67	21.935676848393
14	42748	68	17.435676848393
14	43297	69	12.935676848393
14	43794	70	8.435676848393
14	44327	71	4.2139397875839
14	44779	72	1.4493498464947
14	45258	73	0.54759677022163
14	45810	74	0.12125762185389
14	46273	75	0.014198039999559
14	46710	76	0.0068536660541399
14	47284	77	0.00078308175319141
14	47705	78	0
14	48333	79	0.00010883605947868
14	48870	80	0
14	49425	81	0
14	49920	82	0
14	50577	83	0
14	50986	84	0
14	51542	85	0
14	52289	86	0
14	52698	87	0
14	53215	88	0
14	53893	89	0
14	54298	90	0
14	54913	91	0
14	55602	92	0
14	56064	93	0
14	56572	94	0
14	57154	95	0
14	57613	96	2.4347510638414
14	58164	97	4.9566929840483
14	58777	98	6.8151504170382
14	59386	99	8.5797247209819
14	59981	100	10.267246568622
14	60545	101	12.222929954925
14	61021	102	13.903038439667
14	61729	103	15.643870499684
14	62336	104	17.017933103931
14	62891	105	18.975986954011
14	63553	106	21.125257822267
14	64076	107	16.625257822267
14	64651	108	12.382646991895
14	65123	109	7.8826469918954
14	65778	110	3.5882630976736
14	66210	111	0.83047040193514
14	66911	112	0.18628458989259
14	67421	113	0.043518603847905
14	68039	114	0.010472305111937
14	68619	115	2.1727442918973
14	69069	116	4.3243453845776
14	69579	117	6.7463532213982
14	70211	118	9.0599844777886
14	70780	119	10.459769779506
14	71416	120	12.088325476383
14	72377	121	14.213734120659
14	73227	122	16.806924778682
14	73721	123	18.739671998627
14	74225	124	18.287373100853
14	74855	125	14.192575590334
14	75281	126	10.103942189876
14	76081	127	6.7934752169858
14	76449	128	2.2934752169858
14	76879	129	0.17843485922841
14	77363	130	0.1165569816679
14	77737	131	0.036603849538875
14	78175	132	0.0019448796924506
14	78916	133	0.0011870219960219
14	79304	134	0.00023835637351958
14	79750	135	0.00019438045003231
14	80317	136	0
14	80685	137	0
14	81124	138	0
14	81881	139	0
14	82253	140	0
14	82688	141	1.3938073867466
14	83199	142	3.309482332482
14	83568	143	5.198531870218
14	84002	144	7.4622604429722
14	84452	145	9.2891202043276
14	84878	146	11.700013292488
14	85446	147	13.028332539229
14	85937	148	14.363868443901
14	86279	149	16.853144667298
14	86842	150	19.131256514764
14	87331	151	20.552807061654
14	87729	152	22.62132128817
14	88438	153	24.633207087428
14	88936	154	27.061474432563
14	89295	155	28.415949859812
14	89885	156	23.915949859812
14	90345	157	19.725322727826
14	90819	158	15.263020527167
14	91345	159	10.763020527167
14	91807	160	6.2630205271669
14	92196	161	5.0774618151035
14	92659	162	5.5743185756631
14	93105	163	7.6204795454299
14	93490	164	9.7881270985721
14	94003	165	11.589852658626
14	94451	166	14.071542095989
14	94915	167	15.432379565145
14	95400	168	17.026398537391
14	95966	169	18.783355342378
14	96289	170	21.189156501218
14	96892	171	21.706297736157
14	97367	172	21.943638418273
14	97862	173	22.757577084292
14	98369	174	22.028842982099
14	98939	175	21.996797135457
14	99394	176	21.79340434613
14	99826	177	21.834700555921
14	100350	178	22.042429689745
14	100741	179	22.88651745376
14	101506	180	22.553899042223
14	101942	181	21.685906877493
14	102381	182	22.273721190922
5	39	2	3640.6227449235
5	146	3	3639.726031644
5	232	4	3638.1787695016
5	341	5	3635.8912131156
5	664	6	3632.7915952616
5	1012	7	3628.9536319609
5	1427	8	3624.1142851883
5	1802	9	3618.0539753407
5	2667	10	3611.3997237582
5	3426	11	3604.8439917653
5	3969	12	3598.2217854831
5	4927	13	3592.4458988417
5	5591	14	3588.1444174706
5	6423	15	3585.5893360595
5	7109	16	3580.3942444454
5	8050	17	3573.9415112653
5	8495	18	3566.6506799111
5	9550	19	3557.1912134331
5	10089	20	3547.530842579
5	10991	21	3541.5850098701
5	11586	22	3533.9447483173
5	12412	23	3524.7785266325
5	13121	24	3514.2835328259
5	13842	25	3501.9437083872
5	14621	26	3490.121349602
5	15244	27	3478.0418168261
5	16053	28	3465.4732913025
5	16608	29	3452.6948276842
5	17283	30	3440.2528568391
5	17931	31	3429.9925036201
5	18496	32	3420.1901398111
5	19179	33	3413.1380208611
5	19788	34	3408.7631456526
5	20434	35	3404.4057321587
5	20947	36	3399.0815983973
5	22077	37	3393.0146043848
5	22578	38	3385.780506592
5	23348	39	3377.3726828104
5	23979	40	3365.872792573
5	24602	41	3353.8120349427
5	25198	42	3341.7472740913
5	26000	43	3329.5848696151
5	26445	44	3316.7367903096
5	27066	45	3303.1705181486
5	28013	46	3290.0803390134
5	28802	47	3276.5550759744
5	29331	48	3263.1853421973
5	30012	49	3249.7243923852
5	30787	50	3236.6803018038
5	31324	51	3223.7233571558
5	32189	52	3211.2071229452
5	32840	53	3198.8540354786
5	33315	54	3185.3918887559
5	33873	55	3172.3179965424
5	34776	56	3161.2546662662
5	35499	57	3149.9445208786
5	36121	58	3137.6136402874
5	37124	59	3125.2654583608
5	37680	60	3111.6401004434
5	38130	61	3096.8288667768
5	38918	62	3080.7290752178
5	39392	63	3064.5351231772
5	39892	64	3048.3715923913
5	40789	65	3032.2799844159
5	41306	66	3019.9736898656
5	41952	67	3008.8789024993
5	42748	68	3000.1113065935
5	43297	69	2993.79284763
5	43794	70	2989.777816668
5	44327	71	2987.5155783288
5	44779	72	2986.4702234572
5	45258	73	2986.0752650192
5	45810	74	2985.9878070145
5	46273	75	2985.9775665675
5	46710	76	2985.9726233074
5	47284	77	2985.9720585036
5	47705	78	2985.9720585036
5	48333	79	2985.9719800047
5	48870	80	2985.9719800047
5	49425	81	2985.9719800047
5	49920	82	2985.9719800047
5	50577	83	2985.9719800047
5	50986	84	2985.9719800047
5	51542	85	2985.9719800047
5	52289	86	2985.9719800047
5	52698	87	2985.9719800047
5	53215	88	2985.9719800047
5	53893	89	2985.9719800047
5	54298	90	2985.9719800047
5	54913	91	2985.9719800047
5	55602	92	2985.9719800047
5	56064	93	2985.9719800047
5	56572	94	2985.9719800047
5	57154	95	2985.9719800047
5	57613	96	2984.0631937518
5	58164	97	2979.6207836801
5	58777	98	2972.9710906966
5	59386	99	2965.3892348833
5	59981	100	2956.4185986097
5	60545	101	2945.694512633
5	61021	102	2933.4963424631
5	61729	103	2919.770810789
5	62336	104	2904.839711746
5	62891	105	2888.211039517
5	63553	106	2869.7316370247
5	64076	107	2855.1227839904
5	64651	108	2844.2419740797
5	65123	109	2837.3153788559
5	65778	110	2834.1608583353
5	66210	111	2833.4297221487
5	66911	112	2833.2657194289
5	67421	113	2833.2274061717
5	68039	114	2833.2181864798
5	68619	115	2831.3057800534
5	69069	116	2827.500356115
5	69579	117	2821.5635652802
5	70211	118	2813.5866357074
5	70780	119	2804.3785282304
5	71416	120	2795.0279830299
5	72377	121	2783.5986611338
5	73227	122	2771.6633465491
5	73721	123	2759.3289769491
5	74225	124	2747.2923084921
5	74855	125	2737.9508177275
5	75281	126	2731.3004474651
5	76081	127	2726.8290119884
5	76449	128	2725.3194566986
5	76879	129	2725.2020116599
5	77363	130	2725.1252943678
5	77737	131	2725.1012018752
5	78175	132	2725.0999217639
5	78916	133	2725.0991404713
5	79304	134	2725.0989835862
5	79750	135	2725.0988556458
5	80317	136	2725.0988556458
5	80685	137	2725.0988556458
5	81124	138	2725.0988556458
5	81881	139	2725.0988556458
5	82253	140	2725.0988556458
5	82688	141	2724.1866025413
5	83199	142	2722.0516619778
5	83568	143	2718.6980992615
5	84002	144	2713.8975406895
5	84452	145	2708.0570347981
5	84878	146	2700.9238972352
5	85446	147	2692.9809243604
5	85937	148	2684.0683504645
5	86279	149	2673.1630514221
5	86842	150	2660.5725568418
5	87331	151	2647.3635735015
5	87729	152	2633.1632639596
5	88438	153	2617.700013109
5	88936	154	2600.9608572374
5	89295	155	2583.539547703
5	89885	156	2568.5258702617
5	90345	157	2556.0361022547
5	90819	158	2546.3821538865
5	91345	159	2539.5744814293
5	91807	160	2535.1693942362
5	92196	161	2530.6199958124
5	92659	162	2526.8393327144
5	93105	163	2521.7911330632
5	93490	164	2515.3069715993
5	94003	165	2507.6292539701
5	94451	166	2498.3075369473
5	94915	167	2488.2669430788
5	95400	168	2477.3063379945
5	95966	169	2465.2147063077
5	96289	170	2451.5737242969
5	96892	171	2437.3777725008
5	97367	172	2422.7580941967
5	97862	173	2407.5564072196
5	98369	174	2391.767453779
5	98939	175	2375.5160707272
5	99394	176	2359.4149556489
5	99826	177	2343.2833306504
5	100350	178	2326.9982339577
5	100741	179	2310.0895194947
5	101506	180	2293.4265457722
5	101942	181	2277.408203656
5	102381	182	2260.949236087
4	39	2	6136.3569402558
4	146	3	6138.0679516084
4	232	4	6141.0202699819
4	341	5	6145.3851378113
4	664	6	6151.2923536893
4	1012	7	6158.4700952895
4	1427	8	6167.5206197281
4	1802	9	6178.8545837852
4	2667	10	6191.2993349876
4	3426	11	6203.5598352994
4	3969	12	6215.9446555264
4	4927	13	6226.7466925902
4	5591	14	6234.7913035884
4	6423	15	6238.6265461411
4	7109	16	6240.9399030366
4	8050	17	6238.5500695962
4	8495	18	6234.2201521658
4	9550	19	6228.6023142548
4	10089	20	6222.8651621918
4	10991	21	6219.3340196604
4	11586	22	6214.9791587687
4	12412	23	6209.943040055
4	13121	24	6204.5288593874
4	13842	25	6198.162963404
4	14621	26	6192.064018749
4	15244	27	6186.016442212
4	16053	28	6181.3587602911
4	16608	29	6177.1027452988
4	17283	30	6172.9588031135
4	17931	31	6169.5414738922
4	18496	32	6166.276683337
4	19179	33	6167.4010747892
4	19788	34	6173.1389204742
4	20434	35	6180.8612046127
4	20947	36	6190.2967272579
4	22077	37	6201.0487597873
4	22578	38	6213.8691539776
4	23348	39	6228.7696458218
4	23979	40	6242.6696316843
4	24602	41	6255.4619697831
4	25198	42	6268.2585539301
4	26000	43	6281.1587045611
4	26445	44	6293.8924233606
4	27066	45	6306.1369477603
4	28013	46	6317.9517643817
4	28802	47	6330.1588618706
4	29331	48	6342.2223004156
4	30012	49	6354.43853667
4	30787	50	6366.9124417182
4	31324	51	6379.6978896039
4	32189	52	6392.4232968964
4	32840	53	6404.7833735109
4	33315	54	6417.2532902958
4	33873	55	6429.3635689398
4	34776	56	6442.8290955395
4	35499	57	6456.6784357148
4	36121	58	6471.4368708171
4	37124	59	6489.5315754605
4	37680	60	6508.6838117632
4	38130	61	6529.5029527235
4	38918	62	6552.1333316267
4	39392	63	6574.5363790587
4	39892	64	6596.9880609846
4	40789	65	6619.3398397341
4	41306	66	6642.3510425979
4	41952	67	6661.180589921
4	42748	68	6676.2487905515
4	43297	69	6687.5355987339
4	43794	70	6694.9540519988
4	44327	71	6698.4644446511
4	44779	72	6699.4682622431
4	45258	73	6699.8475269683
4	45810	74	6699.9315098206
4	46273	75	6699.9413433624
4	46710	76	6699.9460902015
4	47284	77	6699.9466325628
4	47705	78	6699.9466325628
4	48333	79	6699.9467079425
4	48870	80	6699.9467079425
4	49425	81	6699.9467079425
4	49920	82	6699.9467079425
4	50577	83	6699.9467079425
4	50986	84	6699.9467079425
4	51542	85	6699.9467079425
4	52289	86	6699.9467079425
4	52698	87	6699.9467079425
4	53215	88	6699.9467079425
4	53893	89	6699.9467079425
4	54298	90	6699.9467079425
4	54913	91	6699.9467079425
4	55602	92	6699.9467079425
4	56064	93	6699.9467079425
4	56572	94	6699.9467079425
4	57154	95	6699.9467079425
4	57613	96	6701.4461978304
4	58164	97	6703.4371910317
4	58777	98	6702.7865133161
4	59386	99	6698.8048618055
4	59981	100	6693.8127795295
4	60545	101	6687.9482069085
4	61021	102	6681.2775167479
4	61729	103	6673.7715738228
4	62336	104	6665.6063544427
4	62891	105	6656.4619687847
4	63553	106	6646.2176177786
4	64076	107	6638.2848725279
4	64651	108	6632.3764899231
4	65123	109	6628.6152832605
4	65778	110	6626.9058467959
4	66210	111	6626.5121580801
4	66911	112	6626.4238489232
4	67421	113	6626.4032187078
4	68039	114	6626.3982542584
4	68619	115	6625.3677560163
4	69069	116	6623.315928689
4	69579	117	6620.1149004019
4	70211	118	6615.8209550305
4	70780	119	6610.8601296001
4	71416	120	6603.3402039539
4	72377	121	6594.9776976681
4	73227	122	6583.1808916037
4	73721	123	6569.0736682036
4	74225	124	6555.3069353732
4	74855	125	6544.6227657416
4	75281	126	6537.0165189671
4	76081	127	6531.902391433
4	76449	128	6530.1758634953
4	76879	129	6530.0415377493
4	77363	130	6529.9537936639
4	77737	131	6529.9262382893
4	78175	132	6529.924774184
4	78916	133	6529.923880594
4	79304	134	6529.9237011593
4	79750	135	6529.9235548297
4	80317	136	6529.9235548297
4	80685	137	6529.9235548297
4	81124	138	6529.9235548297
4	81881	139	6529.9235548297
4	82253	140	6529.9235548297
4	82688	141	6528.8698767688
4	83199	142	6526.3412592219
4	83568	143	6522.3693090544
4	84002	144	6516.6566297132
4	84452	145	6509.4340098189
4	84878	146	6500.1599066017
4	85446	147	6489.8329011789
4	85937	148	6478.5677408913
4	86279	149	6465.7210543011
4	86842	150	6451.3238237486
4	87331	151	6435.5765896276
4	87729	152	6417.962237804
4	88438	153	6398.7813079788
4	88936	154	6377.5122960174
4	89295	155	6355.0663548913
4	89885	156	6336.4550530381
4	90345	157	6321.1899116931
4	90819	158	6309.369608898
4	91345	159	6301.0342888089
4	91807	160	6296.6924402851
4	92196	161	6297.8601582008
4	92659	162	6301.9475144475
4	93105	163	6307.6559729796
4	93490	164	6314.9882041491
4	94003	165	6323.6700978411
4	94451	166	6334.2110111865
4	94915	167	6345.9288337427
4	95400	168	6358.9579910654
4	95966	169	6373.3316292289
4	96289	170	6389.5457304817
4	96892	171	6405.9644542559
4	97367	172	6422.3282587532
4	97862	173	6439.2639051961
4	98369	174	6454.6150873707
4	98939	175	6469.437827352
4	99394	176	6484.1235092693
4	99826	177	6498.8370190096
4	100350	178	6513.6905088988
4	100741	179	6529.1127949346
4	101506	180	6544.3109430562
4	101942	181	6558.9278620616
4	102381	182	6573.933929378
57	1012	7	2.4001336467644
57	1427	8	4.207176283976
57	1802	9	5.3469894195117
57	2667	10	7.6671633688224
57	3426	11	0.973
57	3969	12	4.3935778823219
57	4927	13	4.841002586804
57	5591	14	6.1514564264165
57	6423	15	8.2684840341985
57	7109	16	1.3725060950129
57	8050	17	0.973
57	8495	18	0.973
57	9550	19	3.7906544642684
57	10089	20	5.1072774518163
57	10991	21	4.9573433708744
57	11586	22	6.3684325200006
57	12412	23	7.4953942969945
57	13121	24	0.973
57	13842	25	0.973
57	14621	26	3.6460199074106
57	15244	27	6.5311332698869
57	16053	28	8.7282028774327
57	16608	29	7.7195549654078
57	17283	30	0.973
57	17931	31	0.973
57	18496	32	0.973
57	19179	33	0.973
57	19788	34	0.973
57	20434	35	0.973
57	20947	36	1.1102820817205
57	22077	37	1.1101207241438
57	22578	38	1.1100585665241
57	23348	39	2.1825546070079
57	23979	40	3.300093838075
57	24602	41	5.3170462233251
57	25198	42	7.2107352982736
57	26000	43	5.9677454688348
57	26445	44	6.1611670741461
57	27066	45	10.384991578212
57	28013	46	12.709952097741
57	28802	47	13.468560067174
57	29331	48	3.0325231320268
57	30012	49	0.973
57	30787	50	0.973
57	31324	51	9.1593134743113
57	32189	52	9.7381477946879
57	32840	53	8.3206451645678
57	33315	54	8.5124260968465
57	33873	55	0.973
57	34776	56	0.973
57	35499	57	0.973
57	36121	58	0.973
57	37124	59	0.973
57	37680	60	0.973
57	38130	61	0.973
57	38918	62	0.973
57	39392	63	0.973
57	39892	64	0.973
57	40789	65	0.973
57	41306	66	0.973
57	41952	67	0.973
57	42748	68	0.973
57	43297	69	0.973
57	43794	70	0.973
57	44327	71	1.6813703804271
57	44779	72	3.5012826040316
57	45258	73	3.6065062624949
57	45810	74	5.9266879324095
57	46273	75	6.6029578093527
57	46710	76	7.8376286688148
57	47284	77	6.5298622137354
57	47705	78	9.6667881810811
57	48333	79	10.357800486949
57	48870	80	10.408880428048
57	49425	81	12.648544985673
57	49920	82	14.66970983434
57	50577	83	14.480975883931
57	50986	84	19.221519755179
57	51542	85	22.036545246736
57	52289	86	24.295273820023
57	52698	87	23.294877796873
57	53215	88	11.606857799117
57	53893	89	1.9558165705002
57	54298	90	13.908919861032
57	54913	91	0.33709165783511
57	55602	92	15.109430990843
57	56064	93	6.2985212915893
57	56572	94	0.973
57	57154	95	0.973
57	57613	96	0.973
57	58164	97	0.973
57	58777	98	0.973
57	59386	99	0.973
57	59981	100	0.973
57	60545	101	0.973
57	61021	102	0.973
57	61729	103	0.973
57	62336	104	1.1105436145296
57	62891	105	1.1107021203744
57	63553	106	1.1100475563731
57	64076	107	1.1100331990195
57	64651	108	1.1100080721751
57	65123	109	0.973
57	65778	110	0.973
57	66210	111	0.973
57	66911	112	0.973
57	67421	113	0.973
57	68039	114	0.973
57	68619	115	2.3308218632034
57	69069	116	3.2684141237772
57	69579	117	3.4955297165875
57	70211	118	3.7500493560556
57	70780	119	4.5619660256254
57	71416	120	6.5595405653734
57	72377	121	8.9105231813664
57	73227	122	7.9085938288439
57	73721	123	12.783384809355
57	74225	124	12.770157332972
57	74855	125	15.675240047326
57	75281	126	12.487023334596
57	76081	127	19.980832247702
57	76449	128	19.824298765261
57	76879	129	19.965464781986
57	77363	130	25.503316498567
57	77737	131	17.444756531685
57	78175	132	12.529868516679
57	78916	133	1.3800274314752
57	79304	134	11.399089136969
57	79750	135	8.6553438999463
57	80317	136	9.9605532962294
57	80685	137	0.973
57	81124	138	0.973
57	81881	139	0.973
57	82253	140	0.973
57	82688	141	0.973
57	83199	142	0.973
57	83568	143	7.6839177740847
57	84002	144	9.5246285572681
57	84452	145	13.181461268777
57	84878	146	0.973
57	85446	147	3.8631448746237
57	85937	148	2.3375210464234
57	86279	149	3.2181218031187
57	86842	150	2.0257300555659
57	87331	151	16.295785958405
57	87729	152	15.397423179573
57	88438	153	14.545454015767
57	88936	154	0.973
57	89295	155	0.973
57	89885	156	0.973
57	90345	157	0.973
57	90819	158	0.973
57	91345	159	0.973
57	91807	160	0.973
57	92196	161	0.973
57	92659	162	1.1102321196671
57	93105	163	1.1100592724336
57	93490	164	1.110032606308
57	94003	165	0.973
57	94451	166	0.973
57	94915	167	0.973
57	95400	168	0.973
57	95966	169	0.973
57	96289	170	0.973
57	96892	171	0.973
57	97367	172	0.973
57	97862	173	2.5998713333161
57	98369	174	3.8209394595406
57	98939	175	5.7994971651532
57	99394	176	4.2268354435173
57	99826	177	7.3446390942943
57	100350	178	5.6495463665203
57	100741	179	6.2821757086037
57	101506	180	7.2899004282235
57	101942	181	12.673345945955
57	102381	182	13.500230502622
57	102869	183	16.51866818833
57	103401	184	11.401513255945
57	103665	185	11.579325046216
57	104335	186	19.959429977862
57	104770	187	19.078588972453
57	105232	188	18.752094918399
57	105818	189	26.755066962368
57	106413	190	11.097213780032
57	106759	191	6.1006704057901
57	107229	192	13.818329614681
56	1012	7	1.5593118736753
56	1427	8	2.229622244928
56	1802	9	2.1495511898538
56	2667	10	2.5047667042818
56	3426	11	-4.0797466718447
56	3969	12	1.6077916391194
56	4927	13	1.4993388696341
56	5591	14	1.71761851029
56	6423	15	2.0700068679173
56	7109	16	-0.17393634628909
56	8050	17	-3.4219108132696
56	8495	18	-4.5
56	9550	19	1.5749046588317
56	10089	20	1.8354299662868
56	10991	21	1.4463647838216
56	11586	22	1.7004946624627
56	12412	23	1.7774733030237
56	13121	24	-3.3278271161269
56	13842	25	-4.5
56	14621	26	1.3926841794047
56	15244	27	2.3114088772098
56	16053	28	2.5282658430282
56	16608	29	1.8122503300197
56	17283	30	-3.1404472726036
56	17931	31	-4.5
56	18496	32	-4.4315007956864
56	19179	33	-0.62324415149109
56	19788	34	-0.30525085621251
56	20434	35	-0.1758878336714
56	20947	36	-0.0085367088882993
56	22077	37	-0.0035600687356979
56	22578	38	-0.0013257289893084
56	23348	39	2.0105159847299
56	23979	40	2.0376957817236
56	24602	41	2.4637650594814
56	25198	42	2.558692760556
56	26000	43	1.6379354011733
56	26445	44	1.4645966956159
56	27066	45	2.3656493975548
56	28013	46	2.5112010973739
56	28802	47	2.3054398271255
56	29331	48	0.065952180963766
56	30012	49	-4.5
56	30787	50	-4.4466573508379
56	31324	51	2.3424416411202
56	32189	52	2.1122278542025
56	32840	53	1.5154154164717
56	33315	54	1.3989960481473
56	33873	55	-4.5
56	34776	56	-3.7037384116401
56	35499	57	-4.5
56	36121	58	-4.1722351337404
56	37124	59	-0.22706039342348
56	37680	60	-0.74011608949753
56	38130	61	-0.0019399272365257
56	38918	62	0
56	39392	63	0
56	39892	64	0
56	40789	65	0
56	41306	66	0
56	41952	67	0
56	42748	68	0
56	43297	69	0
56	43794	70	0
56	44327	71	1.4425438013859
56	44779	72	2.3859337550688
56	45258	73	1.6716421795078
56	45810	74	2.3291118039284
56	46273	75	2.0657332659233
56	46710	76	2.0766936403001
56	47284	77	1.4115691710729
56	47705	78	2.0147893037181
56	48333	79	1.9030334282201
56	48870	80	1.6929525283631
56	49425	81	1.9212820225162
56	49920	82	2.0479065546533
56	50577	83	1.8047329799505
56	50986	84	2.2959008363541
56	51542	85	2.4126032504253
56	52289	86	2.4253687903983
56	52698	87	2.0674303963082
56	53215	88	0.60160743312456
56	53893	89	-0.54092475278303
56	54298	90	0.85567349793855
56	54913	91	-0.74098174001556
56	55602	92	0.9806703946786
56	56064	93	-0.057612583786252
56	56572	94	-4.3054021733438
56	57154	95	-3.5219053007296
56	57613	96	-4.4197203246139
56	58164	97	-4.5
56	58777	98	-4.5
56	59386	99	-4.5
56	59981	100	-4.5
56	60545	101	-3.5680503530334
56	61021	102	-0.96020747309296
56	61729	103	-0.19350819418096
56	62336	104	-0.080082105011977
56	62891	105	-0.0039372692019301
56	63553	106	-0.013788005067199
56	64076	107	-0.00036928176240753
56	64651	108	-0.00052170629353315
56	65123	109	-0.00016777091963824
56	65778	110	0
56	66210	111	0
56	66911	112	0
56	67421	113	0
56	68039	114	0
56	68619	115	2.1519932449795
56	69069	116	1.9674354340183
56	69579	117	1.5373951629736
56	70211	118	1.3454651284497
56	70780	119	1.4641553838737
56	71416	120	1.9327908379259
56	72377	121	2.2890779294772
56	73227	122	1.6835226509487
56	73721	123	2.552102433471
56	74225	124	2.1909199865069
56	74855	125	2.4274381422205
56	75281	126	1.6311329339631
56	76081	127	2.5853280625539
56	76449	128	2.2692525403108
56	76879	129	2.0538199494826
56	77363	130	2.4995235645911
56	77737	131	1.3555718373274
56	78175	132	0.70752644011367
56	78916	133	-0.61122239336837
56	79304	134	0.57438236658927
56	79750	135	0.23315259413794
56	80317	136	0.36771510385442
56	80685	137	-1.1351582735544
56	81124	138	-2.4256835406754
56	81881	139	-4.5
56	82253	140	-4.5
56	82688	141	-4.142759697726
56	83199	142	-4.5
56	83568	143	1.4706638769247
56	84002	144	1.7173379814718
56	84452	145	2.2335704328027
56	84878	146	-0.51985861505665
56	85446	147	0.25526562752202
56	85937	148	-0.073011277313345
56	86279	149	0.11401235610247
56	86842	150	-0.1401311625028
56	87331	151	2.5380749132019
56	87729	152	2.0874187013833
56	88438	153	1.7439635113664
56	88936	154	-4.5
56	89295	155	-4.4991770070163
56	89885	156	-4.5
56	90345	157	-4.5
56	90819	158	-4.3430091074901
56	91345	159	-2.7325385945147
56	91807	160	-0.21885858181835
56	92196	161	-0.11044276789079
56	92659	162	-0.022729944432255
56	93105	163	-0.0041733034341798
56	93490	164	-0.0005769892558847
56	94003	165	-0.00067787249488841
56	94451	166	0
56	94915	167	0
56	95400	168	0
56	95966	169	0
56	96289	170	0
56	96892	171	0
56	97367	172	0
56	97862	173	2.3872530113906
56	98369	174	2.2286264948547
56	98939	175	2.5107559222262
56	99394	176	1.306212358363
56	99826	177	2.1915223166579
56	100350	178	1.3218831371516
56	100741	179	1.3466019376181
56	101506	180	1.4551833542064
56	101942	181	2.4724242819473
56	102381	182	2.2891373782186
56	102869	183	2.5166084980825
56	103401	184	1.4112842113245
56	103665	185	1.3195922539569
56	104335	186	2.3974915228086
56	104770	187	2.0282619779464
56	105232	188	1.7950857999036
56	105818	189	2.5435250901384
56	106413	190	0.56991560604505
56	106759	191	-0.036621112073767
56	107229	192	0.84397798415739
47	664	6	1.4771120201563
47	1012	7	3.0364238938317
47	1427	8	5.2660461387597
47	1802	9	7.4155973286135
47	2667	10	9.9203640328953
47	3426	11	5.8406173610506
47	3969	12	7.44840900017
47	4927	13	8.947747869804
47	5591	14	10.665366380094
47	6423	15	12.735373248011
47	7109	16	12.561436901722
47	8050	17	9.1395260884527
47	8495	18	4.6395260884527
47	9550	19	6.2144307472843
47	10089	20	8.0498607135711
47	10991	21	9.4962254973927
47	11586	22	11.196720159855
47	12412	23	12.974193462879
47	13121	24	9.6463663467522
47	13842	25	5.1463663467522
47	14621	26	6.539050526157
47	15244	27	8.8504594033667
47	16053	28	11.378725246395
47	16608	29	13.190975576415
47	17283	30	10.050528303811
47	17931	31	5.5505283038111
47	18496	32	1.1190275081246
47	19179	33	0.49578335663355
47	19788	34	0.19053250042104
47	20434	35	0.014644666749639
47	20947	36	0.0061079578613401
47	22077	37	0.0025478891256422
47	22578	38	0.0012221601363338
47	23348	39	2.0117381448662
47	23979	40	4.0494339265898
47	24602	41	6.5131989860712
47	25198	42	9.0718917466272
47	26000	43	10.7098271478
47	26445	44	12.174423843416
47	27066	45	14.540073240971
47	28013	46	17.051274338345
47	28802	47	19.356714165471
47	29331	48	19.422666346434
47	30012	49	14.922666346434
47	30787	50	10.476008995596
47	31324	51	12.818450636717
47	32189	52	14.930678490919
47	32840	53	16.446093907391
47	33315	54	17.845089955538
47	33873	55	13.345089955538
47	34776	56	9.641351543898
47	35499	57	5.141351543898
47	36121	58	0.96911641015754
47	37124	59	0.74205601673406
47	37680	60	0.0019399272365257
47	38130	61	0
47	38918	62	0
47	39392	63	0
47	39892	64	0
47	40789	65	0
47	41306	66	0
47	41952	67	0
47	42748	68	0
47	43297	69	0
47	43794	70	0
47	44327	71	1.4425438013859
47	44779	72	3.8284775564547
47	45258	73	5.5001197359625
47	45810	74	7.8292315398909
47	46273	75	9.8949648058142
47	46710	76	11.971658446114
47	47284	77	13.383227617187
47	47705	78	15.398016920905
47	48333	79	17.301050349125
47	48870	80	18.994002877489
47	49425	81	20.915284900005
47	49920	82	22.963191454658
47	50577	83	24.767924434609
47	50986	84	27.063825270963
47	51542	85	29.476428521388
47	52289	86	31.901797311786
47	52698	87	33.969227708095
47	53215	88	34.570835141219
47	53893	89	34.029910388436
47	54298	90	34.885583886375
47	54913	91	34.144602146359
47	55602	92	35.125272541038
47	56064	93	35.067659957251
47	56572	94	30.762257783908
47	57154	95	27.240352483178
47	57613	96	22.820632158564
47	58164	97	18.320632158564
47	58777	98	13.820632158564
47	59386	99	9.320632158564
47	59981	100	4.820632158564
47	60545	101	1.2525818055306
47	61021	102	0.29237433243764
47	61729	103	0.098866138256685
47	62336	104	0.018784033244708
47	62891	105	0.014846764042778
47	63553	106	0.0010587589755789
47	64076	107	0.00068947721317139
47	64651	108	0.00016777091963824
47	65123	109	0
47	65778	110	0
47	66210	111	0
47	66911	112	0
47	67421	113	0
47	68039	114	0
47	68619	115	2.1519932449795
47	69069	116	4.1194286789978
47	69579	117	5.6568238419713
47	70211	118	7.0022889704211
47	70780	119	8.4664443542948
47	71416	120	10.399235192221
47	72377	121	12.688313121698
47	73227	122	14.371835772647
47	73721	123	16.923938206118
47	74225	124	19.114858192625
47	74855	125	21.542296334845
47	75281	126	23.173429268808
47	76081	127	25.758757331362
47	76449	128	28.028009871673
47	76879	129	30.081829821155
47	77363	130	32.581353385746
47	77737	131	33.936925223074
47	78175	132	34.644451663188
47	78916	133	34.033229269819
47	79304	134	34.607611636408
47	79750	135	34.840764230546
47	80317	136	35.208479334401
47	80685	137	34.073321060846
47	81124	138	31.647637520171
47	81881	139	27.147637520171
47	82253	140	22.647637520171
47	82688	141	18.504877822445
47	83199	142	14.004877822445
47	83568	143	15.47554169937
47	84002	144	17.192879680841
47	84452	145	19.426450113644
47	84878	146	18.906591498588
47	85446	147	19.16185712611
47	85937	148	19.088845848796
47	86279	149	19.202858204899
47	86842	150	19.062727042396
47	87331	151	21.600801955598
47	87729	152	23.688220656981
47	88438	153	25.432184168347
47	88936	154	20.932184168347
47	89295	155	16.433007161331
47	89885	156	11.933007161331
47	90345	157	7.4330071613311
47	90819	158	3.089998053841
47	91345	159	0.35745945932634
47	91807	160	0.138600877508
47	92196	161	0.028158109617208
47	92659	162	0.0054281651849529
47	93105	163	0.0012548617507731
47	93490	164	0.00067787249488841
47	94003	165	0
47	94451	166	0
47	94915	167	0
47	95400	168	0
47	95966	169	0
47	96289	170	0
47	96892	171	0
47	97367	172	0
47	97862	173	2.3872530113906
47	98369	174	4.6158795062453
47	98939	175	7.1266354284715
47	99394	176	8.4328477868345
47	99826	177	10.624370103492
47	100350	178	11.946253240644
47	100741	179	13.292855178262
47	101506	180	14.748038532468
47	101942	181	17.220462814416
47	102381	182	19.509600192634
47	102869	183	22.026208690717
47	103401	184	23.437492902041
47	103665	185	24.757085155998
47	104335	186	27.154576678807
47	104770	187	29.182838656753
47	105232	188	30.977924456657
47	105818	189	33.521449546795
47	106413	190	34.09136515284
47	106759	191	34.054744040767
[...]
101	5591	14	1.5186360970139
101	6423	15	1.724187891325
101	7109	16	2.0630994800711
101	8050	17	1.5135306340679
101	8495	18	-0.52404970536008
101	9550	19	0.31857684480492
101	10089	20	0.224504709756
101	10991	21	-0.47718185775448
101	11586	22	0.3981780417962
101	12412	23	-0.37518146750517
101	13121	24	0.31925346953794
101	13842	25	-0.75021198464092
101	14621	26	1.0679892955115
101	15244	27	-0.22993056213017
101	16053	28	0.14250870384276
101	16608	29	-0.74940636351239
101	17283	30	0.2150494980393
101	17931	31	0.12897106211167
101	18496	32	0.294124538498
101	19179	33	0.24884162391536
101	19788	34	-0.23706799391657
101	20434	35	-0.43342785288114
101	20947	36	-0.86053068923911
101	22077	37	-4.5
101	22578	38	1.558204368758
101	23348	39	1.91868874582
101	23979	40	1.8278899184862
101	24602	41	0.13817716953345
101	25198	42	0.13351064401213
101	26000	43	-0.54880318506621
101	26445	44	0.24502377028111
101	27066	45	-0.17989625483751
101	28013	46	-3.0717572574635
101	28802	47	-4.0440752167255
101	29331	48	1.5243068370502
101	30012	49	0.72862785913583
101	30787	50	0.76015820933972
101	31324	51	1.8037161043379
101	32189	52	2.5601983566536
101	32840	53	1.6617180934176
101	33315	54	1.4591005797498
101	33873	55	1.6543338359101
101	34776	56	1.4068936402211
101	35499	57	1.8968547896016
101	36121	58	1.6710514789214
101	37124	59	1.3956300874939
101	37680	60	2.3909467085333
101	38130	61	-0.28799453810788
101	38918	62	-0.44685589151923
101	39392	63	0.62579815459904
101	39892	64	0.089928380888885
101	40789	65	-0.69526716433466
101	41306	66	0.045374347502367
101	41952	67	0.63711880999617
101	42748	68	-0.91271918327547
101	43297	69	1.0341477117501
101	43794	70	-1.0064756144769
101	44327	71	-2.6907824614036
101	44779	72	-3.9232011905685
101	45258	73	-3.8574388924288
101	45810	74	-3.9480451000932
101	46273	75	-4.5
101	46710	76	-4.5
101	47284	77	1.8012044119649
101	47705	78	2.1941866156645
101	48333	79	0.15401246985164
101	48870	80	1.7276336488314
101	49425	81	1.3701215611305
101	49920	82	1.5582139546284
101	50577	83	2.2576904759509
101	50986	84	1.7712771047372
101	51542	85	-1.8829014204256
101	52289	86	-4.0247956371944
101	52698	87	2.3774899824522
101	53215	88	1.6030883588828
101	53893	89	2.4702338451752
101	54298	90	-2.1309996516521
101	54913	91	-3.9866639648215
101	55602	92	2.1236608204665
101	56064	93	2.2330431145849
101	56572	94	1.6079193031183
101	57154	95	1.3313380909851
101	57613	96	1.8672142070485
101	58164	97	2.2145512616495
101	58777	98	2.1151947004721
101	59386	99	1.5384794133017
101	59981	100	1.8721615951227
101	60545	101	-0.66325351616833
101	61021	102	0.08307712774258
101	61729	103	-0.15029537025839
101	62336	104	0.95940798607189
101	62891	105	-1.0981343006715
101	63553	106	0.026637308765203
101	64076	107	0.9005414835643
101	64651	108	-0.57380508349743
101	65123	109	0.73390732072293
101	65778	110	-0.085546915302984
101	66210	111	-0.94167448899243
101	66911	112	0.3692758112913
101	67421	113	-0.24709397959523
101	68039	114	-2.8648949737733
101	68619	115	-4.5
101	69069	116	-4.1474422580446
101	69579	117	-3.5160051011558
101	70211	118	-4.0094638931681
101	70780	119	-4.5
101	71416	120	-1.3167622001614
101	72377	121	-0.14365291658502
101	73227	122	-0.019574180917569
101	73721	123	-0.0089966272839438
101	74225	124	-0.0034455641967421
101	74855	125	-0.0009988198840424
101	75281	126	-0.0021035285511868
101	76081	127	0
101	76449	128	0
101	76879	129	0
101	77363	130	0
101	77737	131	0
101	78175	132	0
101	78916	133	0
101	79304	134	1.8290148281725
101	79750	135	2.5123967804946
101	80317	136	1.3591437191071
101	80685	137	1.7466661596904
101	81124	138	1.3750672358554
101	81881	139	1.6315711102448
101	82253	140	2.2526264261687
101	82688	141	2.1295782612171
101	83199	142	2.1973457735032
101	83568	143	1.9084578670794
101	84002	144	-2.0012128829492
101	84452	145	-1.6644443549989
101	84878	146	-0.9528666677766
101	85446	147	-0.20425554055529
101	85937	148	1.2571709086691
101	86279	149	-0.43609844869651
101	86842	150	2.2178768128855
101	87331	151	2.2117000236409
101	87729	152	2.1826035003153
101	88438	153	1.0451687737948
101	88936	154	1.7345820597839
101	89295	155	1.6939722379738
101	89885	156	-0.98470396792982
101	90345	157	-0.13076198627153
101	90819	158	-4.5
101	91345	159	-3.3446415362437
101	91807	160	-4.5
101	92196	161	-4.5
101	92659	162	-2.3938300076134
101	93105	163	1.5648853091057
101	93490	164	2.3910030571744
101	94003	165	1.9321945765056
101	94451	166	1.4348878166871
101	94915	167	1.3142172875116
101	95400	168	1.3009109122446
101	95966	169	1.8441361219855
101	96289	170	1.5125806263881
101	96892	171	2.0509080402087
101	97367	172	2.2326962319901
101	97862	173	2.4201988181099
101	98369	174	-0.52557423948566
101	98939	175	-0.36897006591316
101	99394	176	1.2085204787785
101	99826	177	-0.7749662080314
101	100350	178	0.20562213801313
101	100741	179	-0.34051688425243
101	101506	180	0.51565426141024
101	101942	181	0.44828833716456
101	102381	182	-1.0874027340906
101	102869	183	0.27449355998542
101	103401	184	-0.34133501665201
101	103665	185	-0.013964636716992
101	104335	186	0.30291450291406
101	104770	187	-0.31862116591073
101	105232	188	1.1508560713613
101	105818	189	-0.56728809149936
101	106413	190	0.30891085683834
101	106759	191	-3.8884359351648
101	107229	192	-4.5
101	107782	193	-4.5
101	108258	194	-4.5
101	108549	195	-3.7212430412074
101	109026	196	2.2202147939708
101	109458	197	-0.034954580880992
101	109755	198	2.0462962546386
101	110199	199	1.3960653501796
102	3969	12	3.5625338215585
102	4927	13	4.5304218814027
102	5591	14	4.2475534767779
102	6423	15	5.4511533251719
102	7109	16	7.3884438981335
102	8050	17	6.581823310465
102	8495	18	0.973
102	9550	19	2.8660156670551
102	10089	20	2.6138864553648
102	10991	21	0.973
102	11586	22	3.1347126419533
102	12412	23	0.973
102	13121	24	2.8832335078609
102	13842	25	0.973
102	14621	26	5.2803510827602
102	15244	27	1.2101557056916
102	16053	28	2.3731741331632
102	16608	29	0.973
102	17283	30	2.5215370255197
102	17931	31	2.2808392054684
102	18496	32	2.826059464462
102	19179	33	2.7249546934645
102	19788	34	1.1897809231795
102	20434	35	0.973
102	20947	36	0.973
102	22077	37	0.973
102	22578	38	4.7958605331183
102	23348	39	6.5677432936599
102	23979	40	7.2977249240814
102	24602	41	2.3029318660065
102	25198	42	2.3054643431427
102	26000	43	0.973
102	26445	44	2.597933992384
102	27066	45	1.3325657050926
102	28013	46	0.973
102	28802	47	0.973
102	29331	48	3.838519012952
102	30012	49	2.7639274402666
102	30787	50	3.007036818242
102	31324	51	5.927996514893
102	32189	52	9.5046496786287
102	32840	53	7.6548140341028
102	33315	54	7.641771701949
102	33873	55	9.2313815823549
102	34776	56	8.8787336548548
102	35499	57	12.226241911615
102	36121	58	12.077390577052
102	37124	59	11.347967405375
102	37680	60	18.883070468244
102	38130	61	2.1188536598948
102	38918	62	1.0853188782028
102	39392	63	7.8261309652419
102	39892	64	4.519141292481
102	40789	65	0.973
102	41306	66	4.0852831812788
102	41952	67	7.926304536902
102	42748	68	0.973
102	43297	69	10.459565603967
102	43794	70	0.973
102	44327	71	0.973
102	44779	72	0.973
102	45258	73	0.973
102	45810	74	0.973
102	46273	75	0.973
102	46710	76	0.973
102	47284	77	2.733234263
102	47705	78	4.3297252522697
102	48333	79	1.6142417234482
102	48870	80	4.6017769298215
102	49425	81	4.5048595112036
102	49920	82	5.6040218894036
102	50577	83	8.7710511599768
102	50986	84	8.2228955024805
102	51542	85	0.973
102	52289	86	0.973
102	52698	87	7.9754202527309
102	53215	88	6.7056100444718
102	53893	89	11.028981884661
102	54298	90	0.973
102	54913	91	0.973
102	55602	92	7.3580518466315
102	56064	93	9.046137191648
102	56572	94	7.8492979485875
102	57154	95	7.443510486946
102	57613	96	10.605237159522
102	58164	97	13.622901253751
102	58777	98	14.584603835893
102	59386	99	12.355647879386
102	59981	100	15.527324112158
102	60545	101	-0.23314565482282
102	61021	102	4.2939311045526
102	61729	103	2.8520063895744
102	62336	104	9.9758620296024
102	62891	105	0.973
102	63553	106	3.8921528700653
102	64076	107	9.5306824101565
102	64651	108	0.31953943913236
102	65123	109	8.5611661141465
102	65778	110	3.4203737973262
102	66210	111	0.973
102	66911	112	6.0719132642478
102	67421	113	2.2760842590635
102	68039	114	0.973
102	68619	115	0.973
102	69069	116	0.973
102	69579	117	0.973
102	70211	118	0.973
102	70780	119	0.973
102	71416	120	0.973
102	72377	121	0.973
102	73227	122	1.1106765394881
102	73721	123	1.1103016742311
102	74225	124	1.1101470811602
102	74855	125	1.110100967866
102	75281	126	0.973
102	76081	127	0.973
102	76449	128	0.973
102	76879	129	0.973
102	77363	130	0.973
102	77737	131	0.973
102	78175	132	0.973
102	78916	133	0.973
102	79304	134	2.0050130574712
102	79750	135	3.9556597176975
102	80317	136	3.2693453382574
102	80685	137	4.6422914711645
102	81124	138	4.5226492699434
102	81881	139	5.8303786865947
102	82253	140	8.810613286852
102	82688	141	9.7416485438626
102	83199	142	11.408448726779
102	83568	143	11.363675868772
102	84002	144	0.973
102	84452	145	0.973
102	84878	146	0.973
102	85446	147	1.3560960161191
102	85937	148	6.8462561670624
102	86279	149	0.973
102	86842	150	11.5754508011
102	87331	151	13.040190393073
102	87729	152	14.411194588387
102	88438	153	8.9580863057528
102	88936	154	13.786223446099
102	89295	155	14.61910733945
102	89885	156	0.973
102	90345	157	2.9546537360127
102	90819	158	0.973
102	91345	159	0.973
102	91807	160	0.973
102	92196	161	0.973
102	92659	162	0.973
102	93105	163	4.2234759417872
102	93490	164	7.2048720821087
102	94003	165	7.1934942159579
102	94451	166	6.4334187336443
102	94915	167	6.6030819636633
102	95400	168	7.1085468302084
102	95966	169	10.200589121025
102	96289	170	9.5693468377224
102	96892	171	13.370074168993
102	97367	172	15.903362855701
102	97862	173	18.884024348046
102	98369	174	0.60674189057458
102	98939	175	1.5070616374878
102	99394	176	11.552433198447
102	99826	177	0.973
102	100350	178	5.1120650738803
102	100741	179	1.7182792162432
102	101506	180	7.072826732919
102	101942	181	6.8102105704321
102	102381	182	0.973
102	102869	183	5.4785663315795
102	103401	184	1.6869007069649
102	103665	185	3.6471775777302
102	104335	186	5.635779266993
102	104770	187	1.8188808246508
102	105232	188	11.202102051758
102	105818	189	0.38000111428664
102	106413	190	5.8456607467061
102	106759	191	0.973
102	107229	192	0.973
102	107782	193	0.973
102	108258	194	0.973
102	108549	195	0.973
102	109026	196	5.1400906525537
102	109458	197	1.411004087674
102	109755	198	5.9762373432573
102	110199	199	5.1589084081692
103	3969	12	1.3036597494269
103	4927	13	1.6635781639256
103	5591	14	1.3876754304394
103	6423	15	2.5998513045954
103	7109	16	2.433438217896
103	8050	17	2.2069676619256
103	8495	18	1.3012473299867
103	9550	19	1.288187079457
103	10089	20	-0.11613300882746
103	10991	21	0.18687549494207
103	11586	22	-0.39551476978231
103	12412	23	0.27341666931752
103	13121	24	-0.26214568761643
103	13842	25	0.055055019678548
103	14621	26	-0.42144090987276
103	15244	27	0.35487214322202
103	16053	28	-4.4939340851414
103	16608	29	-3.9842609570594
103	17283	30	0.063094345969148
103	17931	31	0.048832628689706
103	18496	32	1.6681086091325
103	19179	33	1.3621651400579
103	19788	34	1.5278135258239
103	20434	35	2.4138745184522
103	20947	36	0.78814743681862
103	22077	37	0.072389675839805
103	22578	38	-1.5704925055246
103	23348	39	-4.5
103	23979	40	-4.5
103	24602	41	2.3574761475436
103	25198	42	-0.74780132970069
103	26000	43	2.5374351908918
103	26445	44	1.9166256733937
103	27066	45	2.4010498466436
103	28013	46	1.949986792868
103	28802	47	2.2670871848008
103	29331	48	1.6359316470334
103	30012	49	1.4285105444258
103	30787	50	2.3635539332405
103	31324	51	2.4850120680407
103	32189	52	2.0129920883104
103	32840	53	1.4349533356726
103	33315	54	1.7132509528426
103	33873	55	1.1764705817468
103	34776	56	0.53078522372525
103	35499	57	-0.49690390476026
103	36121	58	0.64828738935757
103	37124	59	0.20705295191146
103	37680	60	-0.78600463839361
103	38130	61	-4.5
103	38918	62	-4.2403311674173
103	39392	63	-4.5
103	39892	64	-3.7893138659187
103	40789	65	-1.7485247110069
103	41306	66	-0.26077454220504
103	41952	67	-0.080459810397588
103	42748	68	2.4250460749725
103	43297	69	1.8371639273595
103	43794	70	1.5790643082233
103	44327	71	-1.6527010283962
103	44779	72	-0.39046042724512
103	45258	73	0.58628947264515
103	45810	74	2.4224920479814
103	46273	75	2.2429834315786
103	46710	76	2.1008259876864
103	47284	77	1.8720458762022
103	47705	78	2.1833249288378
103	48333	79	1.6707392071607
103	48870	80	1.4845834727632
103	49425	81	0.7122371580035
103	49920	82	0.089295473415405
103	50577	83	-4.5
103	50986	84	-4.5
103	51542	85	-4.5
103	52289	86	-4.5
103	52698	87	-4.5
103	53215	88	-4.5
103	53893	89	-4.5
103	54298	90	-0.39247711764074
103	54913	91	0
103	55602	92	0
103	56064	93	0
103	56572	94	0
103	57154	95	0
103	57613	96	0
103	58164	97	0
103	58777	98	0
103	59386	99	0
103	59981	100	0
103	60545	101	0
103	61021	102	0
103	61729	103	0
103	62336	104	0
103	62891	105	0
103	63553	106	0
103	64076	107	0
103	64651	108	0
103	65123	109	0
103	65778	110	0
103	66210	111	0
103	66911	112	0
103	67421	113	0
103	68039	114	0
103	68619	115	0
103	69069	116	0
103	69579	117	0
103	70211	118	0
103	70780	119	0
103	71416	120	0
103	72377	121	0
103	73227	122	0
103	73721	123	0
103	74225	124	0
103	74855	125	0
103	75281	126	0
103	76081	127	0
103	76449	128	0
103	76879	129	0
103	77363	130	0
103	77737	131	0
103	78175	132	0
103	78916	133	1.9872080830391
103	79304	134	1.7616793120513
103	79750	135	1.3556359785143
103	80317	136	2.1979651415022
103	80685	137	1.9179955131572
103	81124	138	-4.1852693593362
103	81881	139	-3.744848446227
103	82253	140	-0.97367416259648
103	82688	141	1.6145458706655
103	83199	142	1.4529573110864
103	83568	143	1.7322971312096
103	84002	144	2.4936226135353
103	84452	145	1.357797248452
103	84878	146	1.9041078659706
103	85446	147	2.3898990009911
103	85937	148	1.9361293462804
103	86279	149	1.8756450518267
103	86842	150	2.1995516042691
103	87331	151	1.3683246302418
103	87729	152	2.0415605225833
103	88438	153	1.476384060923
103	88936	154	1.5209097758867
103	89295	155	1.6785599925555
103	89885	156	1.8688883607043
103	90345	157	2.0736527655041
103	90819	158	0.48483798605014
103	91345	159	0.79606651796494
103	91807	160	-1.0119197947206
103	92196	161	1.1980755415279
103	92659	162	-0.9894961848855
103	93105	163	0.012963994429448
103	93490	164	-2.9548375003653
103	94003	165	-3.4348923929463
103	94451	166	-4.5
103	94915	167	-4.3649459981592
103	95400	168	-4.4767329288103
103	95966	169	-4.5
103	96289	170	-4.0008753505864
103	96892	171	-2.6620846307279
103	97367	172	-0.79368591455321
103	97862	173	-0.097835322047844
103	98369	174	-0.004443615749998
103	98939	175	-0.0013688031285123
103	99394	176	-0.00035081608114014
103	99826	177	0
103	100350	178	0
103	100741	179	0
103	101506	180	0
103	101942	181	1.9440444482258
103	102381	182	1.5295409511309
103	102869	183	2.1153769300785
103	103401	184	1.6113366392907
103	103665	185	1.7045053864131
103	104335	186	2.4309044035617
103	104770	187	1.9437228082214
103	105232	188	2.0240659358446
103	105818	189	1.529871515953
103	106413	190	1.8858591460623
103	106759	191	1.3515226981603
103	107229	192	2.0099225597223
103	107782	193	1.4844124852913
103	108258	194	2.5783759216778
103	108549	195	2.1980706423754
103	109026	196	1.9857024173252
103	109458	197	1.4193731768511
103	109755	198	0.83351186567452
103	110199	199	-0.83060642739293
104	3969	12	2.3318018476891
104	4927	13	3.3788120492087
104	5591	14	3.5883409052403
104	6423	15	7.2593925959882
104	7109	16	8.5133369672326
104	8050	17	9.2654963635452
104	8495	18	6.8300061661247
104	9550	19	7.3319128454176
104	10089	20	1.8240083539737
104	10991	21	3.0326917004186
104	11586	22	0.973
104	12412	23	3.3500538821259
104	13121	24	1.245434357544
104	13842	25	2.4704018763012
104	14621	26	0.973
104	15244	27	3.6117444378658
104	16053	28	0.973
104	16608	29	0.973
104	17283	30	1.6250019507392
104	17931	31	1.6029128608219
104	18496	32	5.3334171747283
104	19179	33	5.2036016091614
104	19788	34	6.3168574932062
104	20434	35	10.542331703901
104	20947	36	5.0884959614901
104	22077	37	2.4568131913425
104	22578	38	0.973
104	23348	39	0.973
104	23979	40	0.973
104	24602	41	5.564006050024
104	25198	42	0.973
104	26000	43	7.088127892456
104	26445	44	6.7777090942609
104	27066	45	9.6501326486606
104	28013	46	9.3271455346724
104	28802	47	12.007376152629
104	29331	48	10.222276810612
104	30012	49	9.9826369235867
104	30787	50	16.385889664098
104	31324	51	19.067530957115
104	32189	52	17.640295174042
104	32840	53	14.700744174386
104	33315	54	17.845439464252
104	33873	55	14.597748970695
104	34776	56	9.9020312017784
104	35499	57	1.8022760727373
104	36121	58	10.890904662452
104	37124	59	7.5236498570042
104	37680	60	-0.40225427681384
104	38130	61	0.973
104	38918	62	0.973
104	39392	63	0.973
104	39892	64	0.973
104	40789	65	0.973
104	41306	66	1.1170758106202
104	41952	67	1.6677882151434
104	42748	68	11.019467226092
104	43297	69	9.9060910005294
104	43794	70	9.6647176914829
104	44327	71	0.973
104	44779	72	0.973
104	45258	73	4.81675073136
104	45810	74	14.147039953958
104	46273	75	14.888063148989
104	46710	76	15.610557254823
104	47284	77	15.548461879561
104	47705	78	19.170761943554
104	48333	79	16.856487115045
104	48870	80	16.510040257424
104	49425	81	11.074734042681
104	49920	82	6.3314857309242
104	50577	83	0.973
104	50986	84	0.973
104	51542	85	0.973
104	52289	86	0.973
104	52698	87	0.973
104	53215	88	0.973
104	53893	89	0.973
104	54298	90	0.973
104	54913	91	0.973
104	55602	92	0.973
104	56064	93	0.973
104	56572	94	0.973
104	57154	95	0.973
104	57613	96	0.973
104	58164	97	0.973
104	58777	98	0.973
104	59386	99	0.973
104	59981	100	0.973
104	60545	101	0.973
104	61021	102	0.973
104	61729	103	0.973
104	62336	104	0.973
104	62891	105	0.973
104	63553	106	0.973
104	64076	107	0.973
104	64651	108	0.973
104	65123	109	0.973
104	65778	110	0.973
104	66210	111	0.973
104	66911	112	0.973
104	67421	113	0.973
104	68039	114	0.973
104	68619	115	0.973
104	69069	116	0.973
104	69579	117	0.973
104	70211	118	0.973
104	70780	119	0.973
104	71416	120	0.973
104	72377	121	0.973
104	73227	122	0.973
104	73721	123	0.973
104	74225	124	0.973
104	74855	125	0.973
104	75281	126	0.973
104	76081	127	0.973
104	76449	128	0.973
104	76879	129	0.973
104	77363	130	0.973
104	77737	131	0.973
104	78175	132	0.973
104	78916	133	2.1582958866707
104	79304	134	2.8873588411247
104	79750	135	3.0362189979847
104	80317	136	5.366444028957
104	80685	137	5.8892601620106
104	81124	138	0.973
104	81881	139	0.973
104	82253	140	0.973
104	82688	141	1.9552837201195
104	83199	142	2.4618530230044
104	83568	143	3.5052447095044
104	84002	144	6.0912241006811
104	84452	145	4.5438007267475
104	84878	146	6.7422419154752
104	85446	147	9.6036374385542
104	85937	148	9.2589642191036
104	86279	149	10.111249814542
104	86842	150	12.917692102599
104	87331	151	9.7250999594477
104	87729	152	14.442855290309
104	88438	153	12.174295574376
104	88936	154	13.326220526839
104	89295	155	15.389196710217
104	89885	156	17.990805138466
104	90345	157	21.096080248359
104	90819	158	9.3243295675258
104	91345	159	12.128165997224
104	91807	160	0.973
104	92196	161	15.402700697864
104	92659	162	-1.9704799046362
104	93105	163	5.7114183072417
104	93490	164	0.973
104	94003	165	0.973
104	94451	166	0.973
104	94915	167	0.973
104	95400	168	0.973
104	95966	169	0.973
104	96289	170	0.973
104	96892	171	0.973
104	97367	172	0.973
104	97862	173	1.1101519957955
104	98369	174	1.1100811128713
104	98939	175	1.11001680764
104	99394	176	0.973
104	99826	177	0.973
104	100350	178	0.973
104	100741	179	0.973
104	101506	180	0.973
104	101942	181	2.1152728499654
104	102381	182	2.5618683625205
104	102869	183	4.2450246485819
104	103401	184	4.2879343855042
104	103665	185	5.2627646950378
104	104335	186	8.4323973089207
104	104770	187	8.1875066863861
104	105232	188	9.6443741502041
104	105818	189	8.569130574316
104	106413	190	11.126705632503
104	106759	191	9.3624990639433
104	107229	192	13.865369707564
104	107782	193	11.885904395186
104	108258	194	20.267086202105
104	108549	195	19.593714438943
104	109026	196	19.662957139
104	109458	197	16.45671428686
104	109755	198	12.420945631754
104	110199	199	-0.75735773537341

