version 3
run Default-0-20230713-17:12:06-1718
attr configname Default
attr datetime 20230713-17:12:06
attr datetimef 20230713-171206
attr experiment Default
attr inifile omnetpp.ini
attr iterationvars ""
attr iterationvarsd ""
attr iterationvarsf ""
attr measurement ""
attr network Scenario
attr processid 1718
attr repetition 0
attr replication #0
attr resultdir results
attr runnumber 0
attr seedset 0
config image-path ../../images:../../../../../veins-framework/src/veins/images
config cmdenv-express-mode true
config cmdenv-autoflush true
config cmdenv-status-frequency 1s
config **.cmdenv-log-level info
config image-path ../../images
config network Scenario
config debug-on-errors true
config print-undisposed true
config sim-time-limit 200s
config **.scalar-recording true
config **.vector-recording true
config *.playgroundSizeX 12500m
config *.playgroundSizeY 7500m
config *.playgroundSizeZ 50m
config *.annotations.draw true
config *.obstacles.obstacles "xmldoc(\"config.xml\", \"//AnalogueModel[@type='SimpleObstacleShadowing']/obstacles\")"
config *.manager.updateInterval 1s
config *.manager.host "\"localhost\""
config *.manager.port 9999
config *.manager.autoShutdown true
config *.manager.launchConfig "xmldoc(\"sumo.launchd.xml\")"
config *.connectionManager.sendDirect true
config *.connectionManager.maxInterfDist 2600m
config *.connectionManager.drawMaxIntfDist false
config *.**.nic.mac1609_4.useServiceChannel false
config *.**.nic.mac1609_4.txPower 20mW
config *.**.nic.mac1609_4.bitrate 6Mbps
config *.**.nic.phy80211p.minPowerLevel -110dBm
config *.**.nic.phy80211p.useNoiseFloor true
config *.**.nic.phy80211p.noiseFloor -98dBm
config *.**.nic.phy80211p.decider "xmldoc(\"config.xml\")"
config *.**.nic.phy80211p.analogueModels "xmldoc(\"config.xml\")"
config *.**.nic.phy80211p.usePropagationDelay true
config *.**.nic.phy80211p.antenna "xmldoc(\"antenna.xml\", \"/root/Antenna[@id='monopole']\")"
config *.node[*].nic.phy80211p.antennaOffsetY "0 m"
config *.node[*].nic.phy80211p.antennaOffsetZ "1.895 m"
config *.node[*].applType "\"ApplicationLayerTest\""
config *.node[*].appl.headerLength "80 bit"
config *.node[*].appl.sendBeacons false
config *.node[*].appl.dataOnSch false
config *.node[*].appl.beaconInterval 1s
config *.node[*].veinsmobility.x 0
config *.node[*].veinsmobility.y 0
config *.node[*].veinsmobility.z 0
config *.node[*].veinsmobility.setHostSpeed false
config *.node[*0].veinsmobility.accidentCount 1
config *.node[*0].veinsmobility.accidentStart 73s
config *.node[*0].veinsmobility.accidentDuration 50s

vector 0 Scenario.node[0].veinsmobility posx ETV
vector 1 Scenario.node[0].veinsmobility posy ETV
vector 2 Scenario.node[1].veinsmobility posx ETV
vector 3 Scenario.node[1].veinsmobility posy ETV
vector 4 Scenario.node[2].veinsmobility posx ETV
vector 5 Scenario.node[2].veinsmobility posy ETV
vector 6 Scenario.node[0].veinsmobility speed ETV
vector 7 Scenario.node[3].veinsmobility posx ETV
vector 8 Scenario.node[3].veinsmobility posy ETV
vector 9 Scenario.node[4].veinsmobility posx ETV
vector 10 Scenario.node[4].veinsmobility posy ETV
vector 11 Scenario.node[0].veinsmobility acceleration ETV
vector 12 Scenario.node[0].veinsmobility co2emission ETV
vector 13 Scenario.node[1].veinsmobility speed ETV
vector 14 Scenario.node[2].veinsmobility speed ETV
vector 15 Scenario.node[5].veinsmobility posx ETV
vector 16 Scenario.node[5].veinsmobility posy ETV
vector 17 Scenario.node[6].veinsmobility posx ETV
vector 18 Scenario.node[6].veinsmobility posy ETV
vector 19 Scenario.node[1].veinsmobility acceleration ETV
vector 20 Scenario.node[1].veinsmobility co2emission ETV
vector 21 Scenario.node[2].veinsmobility acceleration ETV
vector 22 Scenario.node[2].veinsmobility co2emission ETV
vector 23 Scenario.node[3].veinsmobility speed ETV
vector 24 Scenario.node[4].veinsmobility speed ETV
vector 25 Scenario.node[7].veinsmobility posx ETV
vector 26 Scenario.node[7].veinsmobility posy ETV
vector 27 Scenario.node[3].veinsmobility acceleration ETV
vector 28 Scenario.node[3].veinsmobility co2emission ETV
vector 29 Scenario.node[4].veinsmobility acceleration ETV
vector 30 Scenario.node[4].veinsmobility co2emission ETV
vector 31 Scenario.node[5].veinsmobility speed ETV
vector 32 Scenario.node[6].veinsmobility speed ETV
vector 33 Scenario.node[5].veinsmobility acceleration ETV
vector 34 Scenario.node[5].veinsmobility co2emission ETV
vector 35 Scenario.node[6].veinsmobility acceleration ETV
vector 36 Scenario.node[6].veinsmobility co2emission ETV
vector 37 Scenario.node[7].veinsmobility speed ETV
vector 38 Scenario.node[7].veinsmobility acceleration ETV
vector 39 Scenario.node[7].veinsmobility co2emission ETV
12	4	3	1.449073369372
12	5	4	0.973
12	6	5	0.973
12	7	6	0.973
12	8	7	0.973
12	9	8	3.5343836788024
12	10	9	3.7498511457013
12	11	10	2.3192868037086
12	12	11	3.1881129026655
12	13	12	7.214472918331
12	14	13	9.126213343845
12	15	14	8.8116601082678
12	16	15	1.4846670797951
12	17	16	5.2938773527775
12	18	17	0.973
12	19	18	6.1576557535633
12	20	19	0.973
12	21	20	2.4545377272471
12	22	21	2.4671054867067
12	23	22	4.9634264010066
12	24	23	0.973
12	25	24	2.4800415256822
12	26	25	0.973
12	27	26	5.1832374660359
12	28	27	2.4754173290884
12	29	28	0.973
12	30	29	2.3334770285685
12	31	30	2.5591092527349
12	32	31	2.4914709571038
12	51	32	0.973
12	52	33	5.6386817654746
12	53	34	3.3062978721251
12	54	35	0.973
12	55	36	2.5006376460633
12	56	37	1.32482487328
12	57	38	4.2363524380269
12	58	39	0.973
12	59	40	0.973
12	60	41	0.973
12	61	42	5.802544361164
12	62	43	0.973
12	63	44	5.5614682177144
12	64	45	5.3347007705262
12	65	46	5.9141956768752
12	66	47	3.1644683237749
12	67	48	0.973
12	68	49	0.973
12	69	50	5.2296771990556
12	70	51	6.5251480537031
12	71	52	2.3945437059397
12	72	53	8.947710094592
12	73	54	10.971424650438
12	74	55	3.1726486427342
12	75	56	3.0755625069926
12	76	57	3.459617725409
12	77	58	0.973
12	78	59	1.1679368744968
12	79	60	4.5127087239925
12	80	61	3.703587018011
12	81	62	0.973
12	82	63	3.4067867938688
12	83	64	3.2337226030162
12	84	65	0.973
12	85	66	4.0367983801013
12	86	67	0.973
12	87	68	1.5506440440579
11	4	3	-0.19634001890663
11	5	4	-0.71835363695864
11	6	5	-1.8257047914134
11	7	6	-4.4479361484293
11	8	7	-4.5
11	9	8	1.6594952662708
11	10	9	1.398754352401
11	11	10	0.47198592942691
11	12	11	0.84077007367741
11	13	12	2.2169354937272
11	14	13	2.3636888966663
11	15	14	1.91023722135
11	16	15	-0.17183585401852
11	17	16	0.84852697364986
11	18	17	-0.90654725597706
11	19	18	1.0672538143815
11	20	19	-0.96059726236854
11	21	20	0.10180837530643
11	22	21	0.10157283318695
11	23	22	0.74667251806241
11	24	23	-0.55827539043967
11	25	24	0.094676253735088
11	26	25	-0.57976878371555
11	27	26	0.82426850593183
11	28	27	0.081521124555728
11	29	28	-0.94449562700465
11	30	29	0.072984927520157
11	31	30	0.13272580881603
11	32	31	0.10924501034897
11	51	32	-0.41833191486075
11	52	33	0.9502051333664
11	53	34	0.2972612538375
11	54	35	-0.78963715692517
11	55	36	0.10631152514834
11	56	37	-0.22028133657295
11	57	38	0.56919715558179
11	58	39	-0.88149275997645
11	59	40	-4.5
11	60	41	-3.5334366937634
11	61	42	2.1107127646104
11	62	43	-1.2260192128364
11	63	44	1.8354299662868
11	64	45	1.4463647838216
11	65	46	1.4329721584218
11	66	47	0.43778112460547
11	67	48	-4.003757865591
11	68	49	-3.9994764130563
11	69	50	2.3656493975548
11	70	51	2.2911964192521
11	71	52	0.34303962381637
11	72	53	2.5112010973739
11	73	54	2.5746821876615
11	74	55	0.3022245175238
11	75	56	0.26195232574828
11	76	57	0.34983377945609
11	77	58	-0.69006379465573
11	78	59	-0.26175374507438
11	79	60	0.65790316273924
11	80	61	0.40953698498197
11	81	62	-0.4943275306141
11	82	63	0.33762869206257
11	83	64	0.27681148459669
11	84	65	-1.1486279197736
11	85	66	0.53165988763794
11	86	67	-0.44045267051552
11	87	68	-0.15031289027538
6	3	2	15.406206221476
6	4	3	15.209866202569
6	5	4	14.49151256561
6	6	5	12.665807774197
6	7	6	8.2178716257677
6	8	7	3.7178716257677
6	9	8	5.3773668920385
6	10	9	6.7761212444395
6	11	10	7.2481071738664
6	12	11	8.0888772475438
6	13	12	10.305812741271
6	14	13	12.669501637937
6	15	14	14.579738859287
6	16	15	14.407903005269
6	17	16	15.256429978919
6	18	17	14.349882722942
6	19	18	15.417136537323
6	20	19	14.456539274955
6	21	20	14.558347650261
6	22	21	14.659920483448
6	23	22	15.40659300151
6	24	23	14.848317611071
6	25	24	14.942993864806
6	26	25	14.36322508109
6	27	26	15.187493587022
6	28	27	15.269014711578
6	29	28	14.324519084573
6	30	29	14.397504012093
6	31	30	14.530229820909
6	32	31	14.639474831258
6	51	32	14.221142916398
6	52	33	15.171348049764
6	53	34	15.468609303601
6	54	35	14.678972146676
6	55	36	14.785283671825
6	56	37	14.565002335252
6	57	38	15.134199490833
6	58	39	14.252706730857
6	59	40	9.752706730857
6	60	41	6.2192700370936
6	61	42	8.329982801704
6	62	43	7.1039635888676
6	63	44	8.9393935551544
6	64	45	10.385758338976
6	65	46	11.818730497398
6	66	47	12.256511622003
6	67	48	8.2527537564123
6	68	49	4.253277343356
6	69	50	6.6189267409108
6	70	51	8.9101231601629
6	71	52	9.2531627839793
6	72	53	11.764363881353
6	73	54	14.339046069015
6	74	55	14.641270586538
6	75	56	14.903222912287
6	76	57	15.253056691743
6	77	58	14.562992897087
6	78	59	14.301239152013
6	79	60	14.959142314752
6	80	61	15.368679299734
6	81	62	14.87435176912
6	82	63	15.211980461182
6	83	64	15.488791945779
6	84	65	14.340164026006
6	85	66	14.871823913643
6	86	67	14.431371243128
6	87	68	14.281058352853
1	2	1	3130.1488200841
1	3	2	3114.829674286
1	4	3	3099.702533817
1	5	4	3085.285811306
1	6	5	3072.6859290908
1	7	6	3064.5121373951
1	8	7	3060.8142081009
1	9	8	3055.4415790458
1	10	9	3049.594001058
1	11	10	3052.5172636325
1	12	11	3057.8637762857
1	13	12	3064.4566925682
1	14	13	3072.6012093662
1	15	14	3080.0255396449
1	16	15	3086.9661265741
1	17	16	3092.6236587574
1	18	17	3092.5091829721
1	19	18	3092.3861931995
1	20	19	3091.8378343952
1	21	20	3088.6910037027
1	22	21	3087.1251686312
1	23	22	3086.4407308409
1	24	23	3082.8282138175
1	25	24	3082.2452965018
1	26	25	3081.684995622
1	27	26	3082.6590253225
1	28	27	3095.5093259848
1	29	28	3109.8003198244
1	30	29	3124.0240374862
1	31	30	3131.296349161
1	32	31	3130.7186513225
1	51	32	3129.7647772123
1	52	33	3128.7471686976
1	53	34	3127.7096215734
1	54	35	3126.564175418
1	55	36	3124.8494993353
1	56	37	3122.8353785605
1	57	38	3118.708003757
1	58	39	3112.4748028285
1	59	40	3108.3240383037
1	60	41	3106.5755727761
1	61	42	3105.337313431
1	62	43	3100.2585938016
1	63	44	3091.8437029361
1	64	45	3082.1969933282
1	65	46	3071.6979649712
1	66	47	3061.043222091
1	67	48	3054.5202464712
1	68	49	3051.3333796128
1	69	50	3048.966854371
1	70	51	3052.413298681
1	71	52	3058.1880292975
1	72	53	3068.0133958499
1	73	54	3082.0105034674
1	74	55	3096.1368471945
1	75	56	3107.0739710295
1	76	57	3114.6681671211
1	77	58	3120.5995719821
1	78	59	3126.4243663787
1	79	60	3132.5171201189
1	80	61	3138.7766754006
1	81	62	3144.9089407345
1	82	63	3151.2135187284
1	83	64	3157.6328207451
1	84	65	3163.5760759824
1	85	66	3169.4422181402
1	86	67	3174.6462576628
1	87	68	3179.6907283083
0	2	1	3622.4791520242
0	3	2	3624.1078358025
0	4	3	3625.6847281593
0	5	4	3627.1483785473
0	6	5	3628.4330729982
0	7	6	3629.2793494111
0	8	7	3629.6622158279
0	9	8	3629.8204743811
0	10	9	3627.7001215546
0	11	10	3621.3631084805
0	12	11	3615.3040981142
0	13	12	3607.3835980068
0	14	13	3597.6795166048
0	15	14	3585.1504040044
0	16	15	3572.5262302336
0	17	16	3558.7082898673
0	18	17	3544.3594656529
0	19	18	3528.9434663493
0	20	19	3514.5090884663
0	21	20	3500.2991136747
0	22	21	3485.781125662
0	23	22	3470.3888802445
0	24	23	3456.3863994676
0	25	24	3441.4539427218
0	26	25	3427.1008459332
0	27	26	3412.1378349574
0	28	27	3408.0416887639
0	29	28	3407.0505744538
0	30	29	3405.5625236431
0	31	30	3394.0124208852
0	32	31	3379.4277413044
0	51	32	3365.2378270957
0	52	33	3350.0997943426
0	53	34	3334.6651531021
0	54	35	3320.033843791
0	55	36	3305.3527287502
0	56	37	3290.9279162378
0	57	38	3276.5587620981
0	58	39	3263.7415945614
0	59	40	3254.9269576714
0	60	41	3248.9586378415
0	61	42	3240.8940397989
0	62	43	3234.5064878081
0	63	44	3231.7701933679
0	64	45	3228.2146918267
0	65	46	3223.0530835541
0	66	47	3217.2508033857
0	67	48	3212.3572784563
0	68	49	3209.6196315886
0	69	50	3203.7188289976
0	70	51	3195.6735597047
0	71	52	3188.4824953574
0	72	53	3182.5763097661
0	73	54	3179.915461933
0	74	55	3178.2243782892
0	75	56	3168.7267982558
0	76	57	3155.5281648596
0	77	58	3142.2267198495
0	78	59	3129.1643536518
0	79	60	3115.501076446
0	80	61	3101.4637392017
0	81	62	3087.9112751369
0	82	63	3074.0661116856
0	83	64	3059.9690086359
0	84	65	3046.9173277345
0	85	66	3033.256660219
0	86	67	3019.7951906376
0	87	68	3006.4418281629
36	7	6	2.9572775987046
36	8	7	5.4475378523348
36	9	8	6.1741223065018
36	10	9	6.0427391267003
36	11	10	9.3388311865557
36	12	11	11.610953549582
36	13	12	0.973
36	14	13	0.973
36	15	14	0.973
36	16	15	2.3950827190471
36	17	16	2.3406988899712
36	18	17	4.7864241640101
36	19	18	5.5711916415606
36	20	19	9.1876603432266
36	21	20	8.5320880655991
36	22	21	12.824445095099
36	23	22	14.32190864606
36	24	23	7.7296278466892
36	25	24	0.973
36	26	25	6.4335760319221
36	27	26	0.973
36	28	27	5.3898054555883
36	29	28	6.2929904697104
36	30	29	0.973
36	31	30	6.4626367703788
36	32	31	2.9175078276176
36	51	32	2.6054239957213
36	52	33	1.7491799291246
36	53	34	2.8642386709672
36	54	35	4.9938104695303
36	55	36	0.973
36	56	37	0.973
36	57	38	0.973
36	58	39	0.973
36	59	40	2.6561313281947
36	60	41	0.973
36	61	42	2.7916027374698
36	62	43	5.9980462198764
36	63	44	7.7324832395063
36	64	45	7.3036594779746
36	65	46	10.620574329568
36	66	47	9.1030687306768
36	67	48	9.650207712528
36	68	49	13.043860818796
36	69	50	17.098660769535
36	70	51	16.201221252099
36	71	52	6.1238334619963
36	72	53	6.6060257200796
36	73	54	2.5605493358129
36	74	55	7.4757689006898
36	75	56	0.973
36	76	57	2.7850940515957
36	77	58	6.3168269410453
36	78	59	3.8899437747241
36	79	60	4.7630785440118
36	80	61	6.3097460301375
36	81	62	0.76840662508588
36	82	63	8.6431417958226
36	83	64	2.5004196374506
36	84	65	1.0365397789385
36	85	66	5.652120168982
36	86	67	7.0294705021116
36	87	68	0.15597719140421
36	88	69	5.2666002710912
36	89	70	3.0581946870362
36	90	71	7.5791047315444
36	91	72	0.58637049972801
36	92	73	0.12457108606181
36	93	74	9.0440018761045
36	94	75	3.8135574165615
36	95	76	3.6408238235802
36	96	77	3.186704883691
36	97	78	1.5225621325943
36	98	79	7.708149861739
36	99	80	3.895631544024
36	100	81	0.29199771303695
36	119	82	4.9697662482788
36	120	83	1.9092748221368
36	121	84	5.9753202783535
36	122	85	5.6607801022923
36	123	86	-0.13224165631909
36	124	87	5.1038956090768
36	125	88	6.0252180669233
36	126	89	3.0464242226753
36	127	90	7.8679202273478
36	128	91	0.62152796691811
36	129	92	1.3211560338088
36	130	93	7.0535182424408
36	131	94	7.1702028279773
36	144	95	0.973
36	145	96	0.973
36	146	97	0.973
36	147	98	0.973
36	148	99	0.973
36	149	100	0.973
36	150	101	1.2980617096305
36	151	102	5.0516077105923
36	152	103	4.4822770099153
36	153	104	8.6448252106938
36	154	105	3.307790849995
36	155	106	3.4097553718084
36	156	107	2.0199003000331
36	157	108	2.9083650270352
36	158	109	2.2620832225999
36	159	110	1.50673292017
36	160	111	0.973
36	161	112	0.973
36	162	113	2.0700401799692
36	186	114	1.8317726763892
36	187	115	6.0681795366961
36	214	116	6.7143808975245
36	215	117	9.1455419762913
36	216	118	0.973
36	217	119	0.973
36	218	120	0.973
36	219	121	2.8856452957762
35	7	6	1.7152554555098
35	8	7	2.5400754326023
35	9	8	2.1827345938887
35	10	9	1.7201388832182
35	11	10	2.3980328541948
35	12	11	2.5434896687279
35	13	12	-4.1477875989375
35	14	13	-3.3922433504411
35	15	14	-1.528684944795
35	16	15	0.55868356751744
35	17	16	0.47505518533289
35	18	17	1.4965369990096
35	19	18	1.5423454139149
35	20	19	2.3674352996983
35	21	20	1.8312385037309
35	22	21	2.529327815515
35	23	22	2.4557177811861
35	24	23	0.97563716394276
35	25	24	-0.5941953298403
35	26	25	0.70617410996929
35	27	26	-0.84661446930841
35	28	27	0.51563537116163
35	29	28	0.65656135275494
35	30	29	-1.0987224263605
35	31	30	0.71590815882664
35	32	31	0.0014834565808997
35	51	32	-0.059585949475878
35	52	33	-0.22760421424173
35	53	34	0.00024345174897178
35	54	35	0.41308504675981
35	55	36	-2.3457448567436
35	56	37	-4.4411105573876
35	57	38	-3.797534389173
35	58	39	-3.9017778969137
35	59	40	0.70594152321227
35	60	41	-0.70248213724699
35	61	42	0.77601387829054
35	62	43	2.0152664079564
35	63	44	2.1991455138661
35	64	45	1.7205195409479
35	65	46	2.2990668435348
35	66	47	1.6529342174064
35	67	48	1.5858694023918
35	68	49	2.0496117572067
35	69	50	2.4794851154555
35	70	51	2.0565801601624
35	71	52	0.36951040961589
35	72	53	0.42506590227131
35	73	54	-0.21764215333387
35	74	55	0.54527945481241
35	75	56	-1.0166441832436
35	76	57	-0.16214880694169
35	77	58	0.40224928173702
35	78	59	0.0058317887131132
35	79	60	0.14224470104091
35	80	61	0.37374367048033
35	81	62	-0.50386621749495
35	82	63	0.73195746024139
35	83	64	-0.23542650425806
35	84	65	-0.46080348251853
35	85	66	0.27769069415517
35	86	67	0.47302364215721
35	87	68	-0.60620921044611
35	88	69	0.21196227145847
35	89	70	-0.13842443837784
35	90	71	0.55847580323461
35	91	72	-0.53802807526663
35	92	73	-0.60461635901592
35	93	74	0.81263262128923
35	94	75	-0.023906890559008
35	95	76	-0.04981795931235
35	96	77	-0.11884201485664
35	97	78	-0.37886082695331
35	98	79	0.5971961267991
35	99	80	-0.01214596917853
35	100	81	-0.58038672760594
35	119	82	0.17743423767388
35	120	83	-0.31235045541544
35	121	84	0.33951029521413
35	122	85	0.27514687050134
35	123	86	-0.64792796068359
35	124	87	0.20555179431103
35	125	88	0.33891158874612
35	126	89	-0.13716371117625
35	127	90	0.60720691038296
35	128	91	-0.5316215611063
35	129	92	-0.40995261918288
35	130	93	0.50297459382564
35	131	94	0.49357627350837
35	144	95	-2.2170890194829
35	145	96	-4.5
35	146	97	-4.5
35	147	98	-4.5
35	148	99	-4.3625134344678
35	149	100	-0.5422507471405
35	150	101	-0.071604122989811
35	151	102	1.9551215516869
35	152	103	1.3487495984649
35	153	104	2.5016913218657
35	154	105	0.51358630346187
35	155	106	0.51129312289413
35	156	107	0.044264904223382
35	157	108	0.32250094178598
35	158	109	0.10804871732835
35	159	110	-0.13297029209789
35	160	111	-4.0154734444727
35	161	112	-3.320377590484
35	162	113	0.4663782855621
35	186	114	0.27363158713561
35	187	115	2.2320562760113
35	214	116	2.0015709335217
35	215	117	2.3578330506571
35	216	118	-0.50011491218748
35	217	119	-0.96869259312995
35	218	120	-1.5679864205949
35	219	121	0.48438801178709
32	6	5	2.2737992957234
32	7	6	3.9890547512332
32	8	7	6.5291301838355
32	9	8	8.7118647777243
32	10	9	10.432003660942
32	11	10	12.830036515137
32	12	11	15.373526183865
32	13	12	11.225738584927
32	14	13	7.8334952344864
32	15	14	6.3048102896914
32	16	15	6.8634938572088
32	17	16	7.3385490425417
32	18	17	8.8350860415513
32	19	18	10.377431455466
32	20	19	12.744866755164
32	21	20	14.576105258895
32	22	21	17.10543307441
32	23	22	19.561150855596
32	24	23	20.536788019539
32	25	24	19.942592689699
32	26	25	20.648766799668
32	27	26	19.80215233036
32	28	27	20.317787701521
32	29	28	20.974349054276
32	30	29	19.875626627916
32	31	30	20.591534786742
32	32	31	20.593018243323
32	51	32	20.533432293847
32	52	33	20.305828079606
32	53	34	20.306071531355
32	54	35	20.719156578115
32	55	36	18.373411721371
32	56	37	13.932301163983
32	57	38	10.13476677481
32	58	39	6.2329888778966
32	59	40	6.9389304011089
32	60	41	6.2364482638619
32	61	42	7.0124621421525
32	62	43	9.0277285501088
32	63	44	11.226874063975
32	64	45	12.947393604923
32	65	46	15.246460448458
32	66	47	16.899394665864
32	67	48	18.485264068256
32	68	49	20.534875825463
32	69	50	23.014360940918
32	70	51	25.07094110108
32	71	52	25.440451510696
32	72	53	25.865517412968
32	73	54	25.647875259634
32	74	55	26.193154714446
32	75	56	25.176510531203
32	76	57	25.014361724261
32	77	58	25.416611005998
32	78	59	25.422442794711
32	79	60	25.564687495752
32	80	61	25.938431166232
32	81	62	25.434564948737
32	82	63	26.166522408979
32	83	64	25.931095904721
32	84	65	25.470292422202
32	85	66	25.747983116357
32	86	67	26.221006758515
32	87	68	25.614797548068
32	88	69	25.826759819527
32	89	70	25.688335381149
32	90	71	26.246811184384
32	91	72	25.708783109117
32	92	73	25.104166750101
32	93	74	25.91679937139
32	94	75	25.892892480831
32	95	76	25.843074521519
32	96	77	25.724232506662
32	97	78	25.345371679709
32	98	79	25.942567806508
32	99	80	25.93042183733
32	100	81	25.350035109724
32	119	82	25.527469347398
32	120	83	25.215118891982
32	121	84	25.554629187196
32	122	85	25.829776057698
32	123	86	25.181848097014
32	124	87	25.387399891325
32	125	88	25.726311480071
32	126	89	25.589147768895
32	127	90	26.196354679278
32	128	91	25.664733118172
32	129	92	25.254780498989
32	130	93	25.757755092814
32	131	94	26.251331366323
32	144	95	24.03424234684
32	145	96	19.53424234684
32	146	97	15.03424234684
32	147	98	10.53424234684
32	148	99	6.1717289123719
32	149	100	5.6294781652314
32	150	101	5.5578740422416
32	151	102	7.5129955939285
32	152	103	8.8617451923935
32	153	104	11.363436514259
32	154	105	11.877022817721
32	155	106	12.388315940615
32	156	107	12.432580844838
32	157	108	12.755081786624
32	158	109	12.863130503953
32	159	110	12.730160211855
32	160	111	8.7146867673823
32	161	112	5.3943091768983
32	162	113	5.8606874624604
32	186	114	6.134319049596
32	187	115	8.3663753256073
32	214	116	10.367946259129
32	215	117	12.725779309786
32	216	118	12.225664397599
32	217	119	11.256971804469
32	218	120	9.6889853838737
32	219	121	10.173373395661
18	5	4	2297.5291637801
18	6	5	2296.0307584802
18	7	6	2293.4020212858
18	8	7	2289.0994061474
18	9	8	2283.3583962086
18	10	9	2276.4838362577
18	11	10	2267.5865898439
18	12	11	2256.8172479545
18	13	12	2248.9534816763
18	14	13	2243.4660230829
18	15	14	2240.5263778958
18	16	15	2242.8755421433
18	17	16	2248.1616245131
18	18	17	2254.688961677
18	19	18	2262.3557793725
18	20	19	2271.7716517282
18	21	20	2282.539005352
18	22	21	2295.1764925844
18	23	22	2309.6301937819
18	24	23	2324.8047916254
18	25	24	2339.5403395473
18	26	25	2354.7976783216
18	27	26	2369.4294551001
18	28	27	2384.4422339801
18	29	28	2399.8408666008
18	30	29	2413.2857341238
18	31	30	2427.0313567693
18	32	31	2440.6951860062
18	51	32	2453.9828250202
18	52	33	2467.0553947538
18	53	34	2480.1281212177
18	54	35	2493.5054004186
18	55	36	2505.6755962916
18	56	37	2514.904085627
18	57	38	2521.6171609473
18	58	39	2525.7457733503
18	59	40	2529.4374628859
18	60	41	2528.0250184322
18	61	42	2523.7911383505
18	62	43	2518.2451506926
18	63	44	2511.348166069
18	64	45	2503.3942178819
18	65	46	2494.0183988474
18	66	47	2483.4334281141
18	67	48	2471.718074147
18	68	49	2458.7037434848
18	69	50	2444.3232224508
18	70	51	2428.8856003339
18	71	52	2413.0939911078
18	72	53	2396.2886313991
18	73	54	2379.5411423607
18	74	55	2362.4390442059
18	75	56	2346.0011411398
18	76	57	2329.7917440036
18	77	58	2313.4427931803
18	78	59	2297.0903942229
18	79	60	2280.6495627729
18	80	61	2263.9327424378
18	81	62	2247.2813350973
18	82	63	2230.0843094121
18	83	64	2213.0485881974
18	84	65	2196.3091980609
18	85	66	2179.3945462041
18	86	67	2162.2027484853
18	87	68	2145.4131322233
18	88	69	2128.4845820036
18	89	70	2111.6467642286
18	90	71	2094.4658515808
18	91	72	2077.6487095926
18	92	73	2061.2216795375
18	93	74	2044.2349198128
18	94	75	2027.2867923968
18	95	76	2010.0616163789
18	96	77	1992.9946984857
18	97	78	1976.1791383978
18	98	79	1958.9673644575
18	99	80	1941.744041206
18	100	81	1924.9012075914
18	119	82	1907.9404847773
18	120	83	1891.1872909363
18	121	84	1874.2804981667
18	122	85	1857.3176516456
18	123	86	1840.7803102674
18	124	87	1824.1092265657
18	125	88	1807.2397532437
18	126	89	1790.5604905823
18	127	90	1773.502280968
18	128	91	1756.7902459317
18	129	92	1740.3451586366
18	130	93	1723.5725507319
18	131	94	1706.4785420966
18	144	95	1691.4637123415
18	145	96	1679.945862797
18	146	97	1671.0813192794
18	147	98	1664.8700817888
18	148	99	1660.7952036237
18	149	100	1655.5096278236
18	150	101	1650.9177909319
18	151	102	1644.7489328227
18	152	103	1637.4726276514
18	153	104	1628.1422045714
18	154	105	1618.3900800551
18	155	106	1608.218137014
18	156	107	1598.0098484286
18	157	108	1587.536757006
18	158	109	1576.9749476815
18	159	110	1566.5223191563
18	160	111	1559.366762433
18	161	112	1554.9375400951
18	162	113	1550.8606112992
18	186	114	1551.9506224928
18	187	115	1556.3710692384
18	214	116	1561.8490632939
18	215	117	1568.5728388294
18	216	118	1575.0323743266
18	217	119	1578.6375589732
18	218	120	1579.4968725781
18	219	121	1584.107592781
17	5	4	6655.7244326577
17	6	5	6654.0143718104
17	7	6	6651.0143153142
17	8	7	6646.1039391365
17	9	8	6639.5519893263
17	10	9	6631.706371178
17	11	10	6622.4676371146
17	12	11	6611.49779312
17	13	12	6603.487620338
17	14	13	6597.8979970059
17	15	14	6592.4533289851
17	16	15	6586.3439826545
17	17	16	6581.2688688652
17	18	17	6575.3141051368
17	19	18	6568.3198153093
17	20	19	6559.729896669
17	21	20	6549.9041705914
17	22	21	6538.3753166065
17	23	22	6525.193454888
17	24	23	6511.3541311276
17	25	24	6497.915223515
17	26	25	6484.0004395322
17	27	26	6470.6561718214
17	28	27	6456.9644279212
17	29	28	6442.7297685547
17	30	29	6428.102065785
17	31	30	6412.7704097573
17	32	31	6397.3640489189
17	51	32	6381.7111831646
17	52	33	6366.1733149205
17	53	34	6350.6352603889
17	54	35	6334.8144229032
17	55	36	6321.0499382428
17	56	37	6310.6125220153
17	57	38	6303.0200376186
17	58	39	6298.3505793221
17	59	40	6292.6037602845
17	60	41	6286.762386114
17	61	42	6281.1795885165
17	62	43	6274.0586073847
17	63	44	6265.2029624753
17	64	45	6254.9901891233
17	65	46	6242.9706426557
17	66	47	6229.7880934916
17	67	48	6215.4902105158
17	68	49	6199.6070048233
17	69	50	6181.6417423069
17	70	51	6161.8886649775
17	71	52	6141.9491428141
17	72	53	6122.2919480757
17	73	54	6102.8681636602
17	74	55	6083.0301785311
17	75	56	6063.9618227157
17	76	57	6044.9037787555
17	77	58	6025.4433414651
17	78	59	6005.9781844253
17	79	60	5986.4015422164
17	80	61	5966.5670970177
17	81	62	5947.3391723309
17	82	63	5927.6199848422
17	83	64	5908.0724873561
17	84	65	5888.8779264905
17	85	66	5869.4695942642
17	86	67	5849.673076587
17	87	68	5830.3265374624
17	88	69	5810.8199058612
17	89	70	5791.4178245227
17	90	71	5771.5715901908
17	91	72	5752.1273745261
17	92	73	5733.1451187547
17	93	74	5713.5726612562
17	94	75	5693.9946941969
17	95	76	5674.7267700435
17	96	77	5655.4828994764
17	97	78	5636.5224483939
17	98	79	5617.1152448198
17	99	80	5597.7289668981
17	100	81	5578.7824287871
17	119	82	5559.7032768738
17	120	83	5540.8575747282
17	121	84	5521.6980485121
17	122	85	5502.2168622193
17	123	86	5483.2243524554
17	124	87	5464.0757269268
17	125	88	5444.6550535403
17	126	89	5425.2511011495
17	127	90	5405.3687744007
17	128	91	5385.8899340803
17	129	92	5366.7222367424
17	130	93	5347.1727952517
17	131	94	5327.2487426801
17	144	95	5308.4915788309
17	145	96	5292.7140680921
17	146	97	5280.5711389799
17	147	98	5272.0627914943
17	148	99	5267.5136421726
17	149	100	5268.0035968708
17	150	101	5271.1288018454
17	151	102	5275.4168366603
17	152	103	5280.4746689764
17	153	104	5286.9603391437
17	154	105	5293.7391381864
17	155	106	5300.809757274
17	156	107	5307.9056405119
17	157	108	5315.1855908439
17	158	109	5322.5272098746
17	159	110	5329.7929362424
17	160	111	5334.7668351077
17	161	112	5337.8456317426
17	162	113	5341.9028613245
17	186	114	5347.6319745667
17	187	115	5354.7352652039
17	214	116	5363.5379464993
17	215	117	5374.3424951244
17	216	118	5384.7224319631
17	217	119	5394.8648712291
17	218	120	5404.1970756688
17	219	121	5413.263140343
22	5	4	2.4001547411577
22	6	5	3.2530756376456
22	7	6	4.2620133502382
22	8	7	4.4331748928246
22	9	8	6.958450498276
22	10	9	9.94768142871
22	11	10	6.3349837681206
22	12	11	1.3288766503154
22	13	12	2.5206877193237
22	14	13	0.973
22	15	14	0.973
22	16	15	0.973
22	17	16	3.3481396480497
22	18	17	3.2177198178088
22	19	18	4.6072312500879
22	20	19	8.4525140820665
22	21	20	2.4159105362471
22	22	21	0.973
22	23	22	5.5780161992299
22	24	23	8.7179496121649
22	25	24	9.2752761517978
22	26	25	4.5082873456089
22	27	26	0.973
22	28	27	4.7936257536325
22	29	28	0.973
22	30	29	2.1808993406285
22	31	30	0.973
22	32	31	0.973
22	51	32	0.973
22	52	33	0.973
22	53	34	0.973
22	54	35	5.3504753435862
22	55	36	7.6410145015693
22	56	37	10.420028641591
22	57	38	9.5372943527344
22	58	39	11.740769795308
22	59	40	0.973
22	60	41	4.1049859353522
22	61	42	3.0104963040285
22	62	43	4.0138068241285
22	63	44	0.973
22	64	45	2.4594362949418
22	65	46	4.9088508158148
22	66	47	4.5742480133678
22	67	48	0.973
22	68	49	4.9641808323624
22	69	50	1.6240536939767
22	70	51	2.2028694226879
22	71	52	1.3423113415495
22	72	53	4.1735702503369
22	73	54	0.973
22	74	55	6.3253635511836
22	75	56	2.6044087152112
22	76	57	2.2275885110863
22	77	58	14.229313709347
22	78	59	12.693457006009
22	79	60	13.389794348685
22	80	61	18.406172030149
22	81	62	12.420372468228
22	82	63	5.769454006154
22	83	64	10.362668419169
22	84	65	0.973
22	85	66	0.973
22	86	67	0.973
22	87	68	0.973
22	88	69	0.973
22	89	70	0.973
22	90	71	0.973
22	91	72	0.973
22	92	73	0.973
22	93	74	1.1132607782647
22	94	75	1.1113032801065
22	95	76	1.1112207277965
22	96	77	1.1104718492228
22	97	78	1.1101032589433
22	98	79	1.1100171015519
22	99	80	0.973
22	100	81	0.973
22	119	82	0.973
22	120	83	0.973
22	121	84	0.973
22	122	85	0.973
22	123	86	0.973
22	124	87	0.973
22	125	88	0.973
22	126	89	0.973
22	127	90	0.973
22	128	91	0.973
22	129	92	0.973
22	130	93	0.973
22	131	94	0.973
22	144	95	0.973
22	145	96	2.4371641539916
22	146	97	4.2934706328943
22	147	98	3.4653592526724
22	148	99	5.2225141375646
22	149	100	5.2631915014066
22	150	101	8.0419908856842
22	151	102	6.7825750397957
22	152	103	9.8997166122861
22	153	104	12.28449670734
22	154	105	14.150523792325
22	155	106	12.762609025725
22	156	107	0.973
22	157	108	0.973
22	158	109	0.973
22	159	110	0.973
22	160	111	0.973
22	161	112	1.1123938461552
22	162	113	1.1103111957739
22	186	114	1.110054434664
22	187	115	2.1482157853147
22	214	116	2.664565979363
22	215	117	3.7251331091446
22	216	118	3.5871067861052
22	217	119	4.9958326489142
22	218	120	7.4878049898551
22	219	121	7.7727375795626
22	220	122	6.5966261525767
22	221	123	7.9936697028134
22	222	124	13.021829823854
22	223	125	1.9969586088916
22	224	126	0.973
22	225	127	0.973
22	226	128	0.973
22	227	129	0.973
22	228	130	0.973
22	229	131	1.1101709595802
22	230	132	1.1100689103263
22	231	133	1.1100346586969
22	232	134	0.973
22	233	135	0.973
22	234	136	0.973
22	235	137	0.973
22	236	138	0.973
22	237	139	0.973
22	238	140	0.973
22	239	141	1.6628494193962
22	240	142	2.7951827377422
22	241	143	2.9748209782679
22	242	144	5.1986471994381
22	243	145	7.5592660520615
22	244	146	7.736317681676
22	245	147	10.174094380153
22	246	148	7.0098430749182
22	247	149	11.757685046008
22	248	150	8.7897274348095
22	249	151	13.769336911887
22	250	152	12.1703513249
22	251	153	14.82241981645
22	252	154	12.395698403559
22	253	155	22.187850576019
22	254	156	0.973
22	255	157	0.973
22	256	158	0.973
22	257	159	0.973
22	258	160	0.973
22	259	161	0.973
22	260	162	5.9697547055005
22	261	163	8.0000770179559
22	262	164	9.4498222766868
22	263	165	9.75696723377
22	264	166	11.057747711523
22	265	167	9.8090566169869
22	266	168	14.06739877126
22	267	169	9.7825758466666
22	268	170	6.82219909897
22	269	171	2.1315598766222
22	270	172	1.0780676745554
22	271	173	4.9652466003484
22	272	174	0.973
22	273	175	3.5597441620384
22	274	176	6.8880919777145
22	275	177	2.8026872968844
22	276	178	5.2542183719792
22	277	179	0.973
22	278	180	4.5546153991994
22	279	181	5.1034443370716
21	5	4	1.4015385301784
21	6	5	1.5948854350485
21	7	6	1.7431896411348
21	8	7	1.4684440099867
21	9	8	2.1238328776089
21	10	9	2.5895389665384
21	11	10	1.2596902379261
21	12	11	-0.2089500667993
21	13	12	0.1409852320794
21	14	13	-1.7949582040213
21	15	14	-3.1270641825026
21	16	15	-4.5
21	17	16	1.3428612101357
21	18	17	1.0310144632744
21	19	18	1.4834439461352
21	20	19	2.5224465359235
21	21	20	0.23368179460696
21	22	21	-4.3205626315554
21	23	22	1.8783325833268
21	24	23	2.5366576599656
21	25	24	2.2281300266739
21	26	25	0.70999919529449
21	27	26	-1.2078481578501
21	28	27	0.82650425084867
21	29	28	-0.47854863761459
21	30	29	0.060195035440847
21	31	30	-0.35468478500843
21	32	31	-3.3444111140354
21	51	32	-1.5275973451514
21	52	33	-0.7306824453096
21	53	34	-0.22333251610398
21	54	35	1.7215491539333
21	55	36	2.1747559851734
21	56	37	2.5418741665548
21	57	38	1.9380381025374
21	58	39	2.1537052321015
21	59	40	-0.6276673864387
21	60	41	0.38831389660481
21	61	42	0.12510914949235
21	62	43	0.34263959701639
21	63	44	-0.87720819036477
21	64	45	0.012545942119324
21	65	46	0.56715206475928
21	66	47	0.46201586236712
21	67	48	-0.86907727951184
21	68	49	0.56968365137
21	69	50	-0.19999147157651
21	70	51	-0.062635461846366
21	71	52	-0.26063364534639
21	72	53	0.39349089954048
21	73	54	-0.45522856153548
21	74	55	0.8627166870283
21	75	56	0.013466533459724
21	76	57	-0.070457457355225
21	77	58	2.3034919616068
21	78	59	1.7747161863372
21	79	60	1.7105175084434
21	80	61	2.276243982045
21	81	62	1.2231258223094
21	82	63	0.20704323679675
21	83	64	0.83796362017747
21	84	65	-0.95974974005949
21	85	66	-2.3552608165866
21	86	67	-4.1623782293778
21	87	68	-3.9691402071621
21	88	69	-4.3779395105443
21	89	70	-3.5296274440053
21	90	71	-4.2983202014817
21	91	72	-3.985790324896
21	92	73	-0.59615507359915
21	93	74	-0.098468586243249
21	94	75	-0.085764734924916
21	95	76	-0.019269318059088
21	96	77	-0.017294488633153
21	97	78	-0.0084711996276922
21	98	79	-0.001877251450136
21	99	80	-0.00035786601874089
21	100	81	0
21	119	82	0
21	120	83	0
21	121	84	0
21	122	85	0
21	123	86	0
21	124	87	0
21	125	88	0
21	126	89	0
21	127	90	0
21	128	91	0
21	129	92	0
21	130	93	0
21	131	94	0
21	144	95	0
21	145	96	2.2478029529797
21	146	97	2.5463456669822
21	147	98	1.3706118613016
21	148	99	1.8927657784196
21	149	100	1.5568403084762
21	150	101	2.1843239545124
21	151	102	1.5017193039879
21	152	103	2.0804090110818
21	153	104	2.3021203337237
21	154	105	2.347441291227
21	155	106	1.8286314303123
21	156	107	-4.5
21	157	108	-4.5
21	158	109	-4.5
21	159	110	-4.5
21	160	111	-3.789999072947
21	161	112	-0.015286423299054
21	162	113	-0.04538390252085
21	186	114	-0.0071721460675223
21	187	115	1.9765617014607
21	214	116	1.5985931934323
21	215	117	1.8051334520103
21	216	118	1.3170689943712
21	217	119	1.6940347277327
21	218	120	2.2443877446465
21	219	121	1.937776683108
21	220	122	1.3592635146342
21	221	123	1.5523065976566
21	222	124	2.4347510638414
21	223	125	-0.1150081244933
21	224	126	-3.9711759302707
21	225	127	-3.6793322848932
21	226	128	-3.794922308391
21	227	129	-4.5
21	228	130	-1.8528248693173
21	229	131	-0.0041652525846855
21	230	132	-0.0021750688113083
21	231	133	-0.00072311352689539
21	232	134	-0.00072106877560891
21	233	135	0
21	234	136	0
21	235	137	0
21	236	138	0
21	237	139	0
21	238	140	0
21	239	141	1.4174498652807
21	240	142	1.9020744773559
21	241	143	1.4228521948913
21	242	144	2.2185022305464
21	243	145	2.5721329000313
21	244	146	2.1094903729623
21	245	147	2.4021390703041
21	246	148	1.304453503387
21	247	149	2.1994512931444
21	248	150	1.3491821906064
21	249	151	2.1285884427605
21	250	152	1.6288404532243
21	251	153	1.8873011167394
21	252	154	1.3513159115333
21	253	155	2.5628781177569
21	254	156	-4.1050348061234
21	255	157	-4.5
21	256	158	-4.5
21	257	159	-4.5
21	258	160	-4.5
21	259	161	-0.35209882287309
21	260	162	2.2255486362148
21	261	163	2.4375427759252
21	262	164	2.3864785335958
21	263	165	2.0831299236277
21	264	166	2.0838115428807
21	265	167	1.5842993312515
21	266	168	2.1920843020082
21	267	169	1.2298955612758
21	268	170	0.63643638743088
21	269	171	-0.20964687059168
21	270	172	-0.39593886509538
21	271	173	0.3135013140738
21	272	174	-0.80294906396885
21	273	175	0.082199853518979
21	274	176	0.67031037125271
21	275	177	-0.080071055074225
21	276	178	0.35521551442798
21	277	179	-1.165877636103
21	278	180	0.26890257094055
21	279	181	0.35484095539432
14	4	3	1.9318736586953
14	5	4	3.3334121888736
14	6	5	4.9282976239221
14	7	6	6.6714872650569
14	8	7	8.1399312750436
14	9	8	10.263764152653
14	10	9	12.853303119191
14	11	10	14.112993357117
14	12	11	13.904043290318
14	13	12	14.045028522397
14	14	13	12.250070318376
14	15	14	9.1230061358733
14	16	15	4.6230061358733
14	17	16	5.9658673460091
14	18	17	6.9968818092834
14	19	18	8.4803257554187
14	20	19	11.002772291342
14	21	20	11.236454085949
14	22	21	6.9158914543938
14	23	22	8.7942240377206
14	24	23	11.330881697686
14	25	24	13.55901172436
14	26	25	14.269010919655
14	27	26	13.061162761804
14	28	27	13.887667012653
14	29	28	13.409118375039
14	30	29	13.469313410479
14	31	30	13.114628625471
14	32	31	9.7702175114356
14	51	32	8.2426201662841
14	52	33	7.5119377209745
14	53	34	7.2886052048706
14	54	35	9.0101543588039
14	55	36	11.184910343977
14	56	37	13.726784510532
14	57	38	15.664822613069
14	58	39	17.818527845171
14	59	40	17.190860458732
14	60	41	17.579174355337
14	61	42	17.704283504829
14	62	43	18.046923101846
14	63	44	17.169714911481
14	64	45	17.1822608536
14	65	46	17.74941291836
14	66	47	18.211428780727
14	67	48	17.342351501215
14	68	49	17.912035152585
14	69	50	17.712043681008
14	70	51	17.649408219162
14	71	52	17.388774573816
14	72	53	17.782265473356
14	73	54	17.327036911821
14	74	55	18.189753598849
14	75	56	18.203220132309
14	76	57	18.132762674953
14	77	58	20.43625463656
14	78	59	22.210970822897
14	79	60	23.921488331341
14	80	61	26.197732313386
14	81	62	27.420858135695
14	82	63	27.627901372492
14	83	64	28.465864992669
14	84	65	27.50611525261
14	85	66	25.150854436023
14	86	67	20.988476206646
14	87	68	17.019335999483
14	88	69	12.641396488939
14	89	70	9.1117690449338
14	90	71	4.8134488434521
14	91	72	0.82765851855612
14	92	73	0.23150344495698
14	93	74	0.13303485871373
14	94	75	0.047270123788811
14	95	76	0.028000805729722
14	96	77	0.010706317096569
14	97	78	0.0022351174688769
14	98	79	0.00035786601874089
14	99	80	0
14	100	81	0
14	119	82	0
14	120	83	0
14	121	84	0
14	122	85	0
14	123	86	0
14	124	87	0
14	125	88	0
14	126	89	0
14	127	90	0
14	128	91	0
14	129	92	0
14	130	93	0
14	131	94	0
14	144	95	0
14	145	96	2.2478029529797
14	146	97	4.7941486199619
14	147	98	6.1647604812635
14	148	99	8.0575262596831
14	149	100	9.6143665681593
14	150	101	11.798690522672
14	151	102	13.30040982666
14	152	103	15.380818837741
14	153	104	17.682939171465
14	154	105	20.030380462692
14	155	106	21.859011893004
14	156	107	17.359011893004
14	157	108	12.859011893004
14	158	109	8.3590118930045
14	159	110	3.8590118930045
14	160	111	0.069012820057501
14	161	112	0.053726396758447
14	162	113	0.0083424942375967
14	186	114	0.0011703481700743
14	187	115	1.9777320496308
14	214	116	3.5763252430631
14	215	117	5.3814586950735
14	216	118	6.6985276894447
14	217	119	8.3925624171773
14	218	120	10.636950161824
14	219	121	12.574726844932
14	220	122	13.933990359566
14	221	123	15.486296957223
14	222	124	17.921048021064
14	223	125	17.806039896571
14	224	126	13.8348639663
14	225	127	10.155531681407
14	226	128	6.3606093730158
14	227	129	1.8606093730158
14	228	130	0.0077845036984982
14	229	131	0.0036192511138126
14	230	132	0.0014441823025043
14	231	133	0.00072106877560891
14	232	134	0
14	233	135	0
14	234	136	0
14	235	137	0
14	236	138	0
14	237	139	0
14	238	140	0
14	239	141	1.4174498652807
14	240	142	3.3195243426366
14	241	143	4.7423765375279
14	242	144	6.9608787680743
14	243	145	9.5330116681056
14	244	146	11.642502041068
14	245	147	14.044641111372
14	246	148	15.349094614759
14	247	149	17.548545907903
14	248	150	18.89772809851
14	249	151	21.02631654127
14	250	152	22.655156994495
14	251	153	24.542458111234
14	252	154	25.893774022767
14	253	155	28.456652140524
14	254	156	24.351617334401
14	255	157	19.851617334401
14	256	158	15.351617334401
14	257	159	10.851617334401
14	258	160	6.3516173344009
14	259	161	5.9995185115278
14	260	162	8.2250671477426
14	261	163	10.662609923668
14	262	164	13.049088457264
14	263	165	15.132218380891
14	264	166	17.216029923772
14	265	167	18.800329255024
14	266	168	20.992413557032
14	267	169	22.222309118308
14	268	170	22.858745505738
14	269	171	22.649098635147
14	270	172	22.253159770051
14	271	173	22.566661084125
14	272	174	21.763712020156
14	273	175	21.845911873675
14	274	176	22.516222244928
14	275	177	22.436151189854
14	276	178	22.791366704282
14	277	179	21.625489068179
14	278	180	21.894391639119
14	279	181	22.249232594514
5	3	2	3640.6227449235
5	4	3	3639.726031644
5	5	4	3638.1787695016
5	6	5	3635.8912131156
5	7	6	3632.7915952616
5	8	7	3628.9536319609
5	9	8	3624.1142851883
5	10	9	3618.0539753407
5	11	10	3611.3997237582
5	12	11	3604.8439917653
5	13	12	3598.2217854831
5	14	13	3592.4458988417
5	15	14	3588.1444174706
5	16	15	3585.5893360595
5	17	16	3580.3942444454
5	18	17	3573.9415112653
5	19	18	3566.6506799111
5	20	19	3557.1912134331
5	21	20	3547.530842579
5	22	21	3541.5850098701
5	23	22	3533.9447483173
5	24	23	3524.0020143299
5	25	24	3511.9542150783
5	26	25	3499.2755492158
5	27	26	3487.6701114342
5	28	27	3475.1564587877
5	29	28	3462.4995218633
5	30	29	3449.721058245
5	31	30	3437.2790873998
5	32	31	3428.0099906605
5	51	32	3420.1901398111
5	52	33	3413.1380208611
5	53	34	3408.7631456526
5	54	35	3404.3323751096
5	55	36	3398.8321617609
5	56	37	3392.0819741351
5	57	38	3384.3787504353
5	58	39	3375.6164357011
5	59	40	3364.0677778811
5	60	41	3352.0005845587
5	61	42	3339.8475102807
5	62	43	3327.4592316539
5	63	44	3315.1213699137
5	64	45	3302.3577899437
5	65	46	3289.1729097271
5	66	47	3275.6444973578
5	67	48	3262.7602250628
5	68	49	3249.4946081511
5	69	50	3236.6851928467
5	70	51	3224.1096902023
5	71	52	3211.9082266582
5	72	53	3199.3553658575
5	73	54	3186.6354089711
5	74	55	3173.2821228478
5	75	56	3161.5942359801
5	76	57	3150.1415094288
5	77	58	3137.2507728989
5	78	59	3124.6833791617
5	79	60	3110.8165926856
5	80	61	3095.6303151799
5	81	62	3079.7350172163
5	82	63	3063.5426355345
5	83	64	3046.9118201991
5	84	65	3030.8421081268
5	85	66	3019.5684215547
5	86	67	3008.726370577
5	87	68	3000.171622012
5	88	69	2993.9945583859
5	89	70	2989.6541501023
5	90	71	2986.8957759085
5	91	72	2986.298820752
5	92	73	2986.1318470882
5	93	74	2986.0358946596
5	94	75	2986.0018007144
5	95	76	2985.9816049151
5	96	77	2985.9738829004
5	97	78	2985.9722708045
5	98	79	2985.9720126909
5	99	80	2985.9720126909
5	100	81	2985.9720126909
5	119	82	2985.9720126909
5	120	83	2985.9720126909
5	121	84	2985.9720126909
5	122	85	2985.9720126909
5	123	86	2985.9720126909
5	124	87	2985.9720126909
5	125	88	2985.9720126909
5	126	89	2985.9720126909
5	127	90	2985.9720126909
5	128	91	2985.9720126909
5	129	92	2985.9720126909
5	130	93	2985.9720126909
5	131	94	2985.9720126909
5	144	95	2985.9720126909
5	145	96	2984.2179801581
5	146	97	2979.9629265815
5	147	98	2973.8959357215
5	148	99	2966.697234724
5	149	100	2958.3268933864
5	150	101	2947.9750242319
5	151	102	2936.3055849868
5	152	103	2922.8108481098
5	153	104	2907.2962897596
5	154	105	2889.7328417659
5	155	106	2870.6206958458
5	156	107	2855.3670825618
5	157	108	2844.0676839648
5	158	109	2836.7225000548
5	159	110	2833.3284863176
5	160	111	2833.2677282582
5	161	112	2833.2204281825
5	162	113	2833.2130835506
5	186	114	2833.2120531901
5	187	115	2831.47126024
5	214	116	2828.3240940261
5	215	117	2823.5884103744
5	216	118	2817.692275078
5	217	119	2810.3028560927
5	218	120	2800.9721688187
5	219	121	2791.7841398245
5	220	122	2780.4354229923
5	221	123	2769.8247722824
5	222	124	2758.0292173801
5	223	125	2746.3093603189
5	224	126	2737.2033137703
5	225	127	2730.5189875317
5	226	128	2726.3324624477
5	227	129	2725.1078175505
5	228	130	2725.1026938244
5	229	131	2725.1003116493
5	230	132	2725.0993610948
5	231	133	2725.0988864905
5	232	134	2725.0988864905
5	233	135	2725.0988864905
5	234	136	2725.0988864905
5	235	137	2725.0988864905
5	236	138	2725.0988864905
5	237	139	2725.0988864905
5	238	140	2725.0988864905
5	239	141	2724.1713810557
5	240	142	2722.0299624111
5	241	143	2718.9706646056
5	242	144	2714.4819606755
5	243	145	2708.4716146708
5	244	146	2701.3735399456
5	245	147	2692.8109550524
5	246	148	2683.2669108028
5	247	149	2671.8735372302
5	248	150	2659.436730321
5	249	151	2645.9829233497
5	250	152	2631.7613737795
5	251	153	2616.3571243171
5	252	154	2600.3632345174
5	253	155	2582.9169711443
5	254	156	2567.6064695641
5	255	157	2555.0383569575
5	256	158	2545.3283705985
5	257	159	2538.4646601507
5	258	160	2533.4052430509
5	259	161	2528.7001747161
5	260	162	2523.2514649783
5	261	163	2516.1880008778
5	262	164	2507.543610009
5	263	165	2497.519246175
5	264	166	2486.3527059307
5	265	167	2474.2501474262
5	266	168	2460.7364525447
5	267	169	2446.4291789708
5	268	170	2431.3055550508
5	269	171	2416.1828581384
5	270	172	2401.0793915757
5	271	173	2384.4672593537
5	272	174	2368.3880811674
5	273	175	2352.2481731712
5	274	176	2335.6130353224
5	275	177	2319.0370545125
5	276	178	2302.1986380692
5	277	179	2286.2226350963
5	278	180	2270.0482236945
5	279	181	2253.6067130876
4	3	2	6136.3569402558
4	4	3	6138.0679516084
4	5	4	6141.0202699819
4	6	5	6145.3851378113
4	7	6	6151.2923536893
4	8	7	6158.4700952895
4	9	8	6167.5206197281
4	10	9	6178.8545837852
4	11	10	6191.2993349876
4	12	11	6203.5598352994
4	13	12	6215.9446555264
4	14	13	6226.7466925902
4	15	14	6234.7913035884
4	16	15	6238.6265461411
4	17	16	6240.9399030366
4	18	17	6238.5500695962
4	19	18	6234.2201521658
4	20	19	6228.6023142548
4	21	20	6222.8651621918
4	22	21	6219.3340196604
4	23	22	6214.9791587687
4	24	23	6209.5424511671
4	25	24	6203.3272057846
4	26	25	6196.7865075365
4	27	26	6190.7994685697
4	28	27	6184.791206545
4	29	28	6180.3683120107
4	30	29	6176.1122970184
4	31	30	6171.9683548331
4	32	31	6168.8811750386
4	51	32	6166.276683337
4	52	33	6167.4010747892
4	53	34	6173.1389204742
4	54	35	6180.9912092536
4	55	36	6190.7387832124
4	56	37	6202.7015833706
4	57	38	6216.3533706694
4	58	39	6231.8820975583
4	59	40	6244.5841348126
4	60	41	6257.3832989792
4	61	42	6270.2735534615
4	62	43	6283.4132792992
4	63	44	6295.3504550305
4	64	45	6306.8704927031
4	65	46	6318.7707837781
4	66	47	6330.9804720361
4	67	48	6342.605881309
4	68	49	6354.6582765361
4	69	50	6366.9077644734
4	70	51	6379.3051001047
4	71	52	6391.7104762387
4	72	53	6404.3189937775
4	73	54	6416.1014239611
4	74	55	6428.4705037366
4	75	56	6442.4017434421
4	76	57	6456.4650314521
4	77	58	6472.0521676932
4	78	59	6490.3497644897
4	79	60	6509.8413604507
4	80	61	6531.1876749556
4	81	62	6553.5306111593
4	82	63	6575.9149774086
4	83	64	6599.0157331174
4	84	65	6621.3379025403
4	85	66	6643.5245303577
4	86	67	6661.4323258111
4	87	68	6676.1427665785
4	88	69	6687.1715014974
4	89	70	6695.1825470333
4	90	71	6699.0596191607
4	91	72	6699.6328542448
4	92	73	6699.7931931935
4	93	74	6699.8853329428
4	94	75	6699.9180721617
4	95	76	6699.9374654789
4	96	77	6699.9448806585
4	97	78	6699.9464286976
4	98	79	6699.9466765551
4	99	80	6699.9466765551
4	100	81	6699.9466765551
4	119	82	6699.9466765551
4	120	83	6699.9466765551
4	121	84	6699.9466765551
4	122	85	6699.9466765551
4	123	86	6699.9466765551
4	124	87	6699.9466765551
4	125	88	6699.9466765551
4	126	89	6699.9466765551
4	127	90	6699.9466765551
4	128	91	6699.9466765551
4	129	92	6699.9466765551
4	130	93	6699.9466765551
4	131	94	6699.9466765551
4	144	95	6699.9466765551
4	145	96	6701.3410513795
4	146	97	6703.3645078246
4	147	98	6703.1458806109
4	148	99	6699.5833169346
4	149	100	6694.8563494268
4	150	101	6689.1953272611
4	151	102	6682.813778843
4	152	103	6675.4340483383
4	153	104	6666.9497584579
4	154	105	6657.3185807425
4	155	106	6646.70038512
4	156	107	6638.4175289608
4	157	108	6632.2818487437
4	158	109	6628.2933444688
4	159	110	6626.4576464787
4	160	111	6626.4249306005
4	161	112	6626.399461329
4	162	113	6626.3955065272
4	186	114	6626.3949517177
4	187	115	6625.4569804429
4	214	116	6623.7600757758
4	215	117	6621.2066664088
4	216	118	6618.0300988661
4	217	119	6614.0518339097
4	218	120	6608.9607618496
4	219	121	6600.388869204
4	220	122	6592.3503229457
4	221	123	6581.0780538618
4	222	124	6567.5870905186
4	223	125	6554.1827052813
4	224	126	6543.7678209281
4	225	127	6536.1227375891
4	226	128	6531.3344714234
4	227	129	6529.9338048543
4	228	130	6529.9279446806
4	229	131	6529.9252201087
4	230	132	6529.9241329284
4	231	133	6529.9235901079
4	232	134	6529.9235901079
4	233	135	6529.9235901079
4	234	136	6529.9235901079
4	235	137	6529.9235901079
4	236	138	6529.9235901079
4	237	139	6529.9235901079
4	238	140	6529.9235901079
4	239	141	6528.8518484844
4	240	142	6526.3155583167
4	241	143	6522.6921346747
4	242	144	6517.3722031969
4	243	145	6509.9730231909
4	244	146	6500.7445066981
4	245	147	6489.6119166694
4	246	148	6477.5896976352
4	247	149	6464.2464948228
4	248	150	6450.0250061221
4	249	151	6433.8640031908
4	250	152	6416.2233048056
4	251	153	6397.1113631069
4	252	154	6376.7423077245
4	253	155	6354.2642156058
4	254	156	6335.3324779415
4	255	157	6319.9682714817
4	256	158	6308.0793557219
4	257	159	6299.6754226682
4	258	160	6296.3674730961
4	259	161	6299.8432911332
4	260	162	6306.0046428509
4	261	163	6313.9919442052
4	262	164	6323.7669432582
4	263	165	6335.1024032659
4	264	166	6348.2043374
4	265	167	6362.5909645569
4	266	168	6378.6550463542
4	267	169	6395.6587333812
4	268	170	6412.7985554419
4	269	171	6429.65909652
4	270	172	6445.9998060558
4	271	173	6461.2735288975
4	272	174	6475.9392023733
4	273	175	6490.6602669612
4	274	176	6505.8330262334
4	275	177	6520.9518289037
4	276	178	6536.3099967494
4	277	179	6550.8836839678
4	278	180	6565.6388562944
4	279	181	6580.6277251633
2	3	2	7212.2148593444
2	4	3	7210.7083561639
2	5	4	7207.6956875486
2	6	5	7202.1563083706
2	7	6	7194.2440006696
2	8	7	7184.0413510542
2	9	8	7171.8170641366
2	10	9	7158.256165051
2	11	10	7144.9455857744
2	12	11	7130.768310752
2	13	12	7121.0324758167
2	14	13	7115.818491703
2	15	14	7111.0512661179
2	16	15	7111.521930616
2	17	16	7113.2744285392
2	18	17	7115.2870585224
2	19	18	7117.568617957
2	20	19	7119.995104533
2	21	20	7121.8003613348
2	22	21	7121.6724865202
2	23	22	7116.6246436381
2	24	23	7108.2485666742
2	25	24	7097.9348631344
2	26	25	7086.0361029136
2	27	26	7072.2309081102
2	28	27	7058.2578897566
2	29	28	7044.6545125849
2	30	29	7030.7892921671
2	31	30	7017.0340266255
2	32	31	7003.7903083197
2	51	32	6991.8710042531
2	52	33	6980.9052756115
2	53	34	6970.0742864494
2	54	35	6958.5485728742
2	55	36	6947.5780044805
2	56	37	6936.297883766
2	57	38	6925.2102298644
2	58	39	6913.972292307
2	59	40	6902.1267491843
2	60	41	6891.7204104747
2	61	42	6884.6409504791
2	62	43	6881.2287840838
2	63	44	6877.2389849937
2	64	45	6878.8750945639
2	65	46	6885.1538154252
2	66	47	6892.5504579619
2	67	48	6901.3475751479
2	68	49	6911.2821342264
2	69	50	6922.1375938544
2	70	51	6934.2682698491
2	71	52	6947.1842090621
2	72	53	6961.3964326315
2	73	54	6976.3764949013
2	74	55	6992.2114298161
2	75	56	7008.0800751229
2	76	57	7024.3909291685
2	77	58	7041.063648425
2	78	59	7057.2785670933
2	79	60	7073.4851989967
2	80	61	7089.8837935865
2	81	62	7106.3942959744
2	82	63	7122.3037398993
2	83	64	7138.3066964692
2	84	65	7154.2582073684
2	85	66	7170.4725980799
2	86	67	7187.231491488
2	87	68	7209.6311332202
2	88	69	7231.4286421788
2	89	70	7251.6499688059
2	90	71	7269.7350050417
2	91	72	7287.3428268414
2	92	73	7305.1783808203
2	93	74	7322.8393620954
2	94	75	7339.6256034908
2	95	76	7355.2556662069
2	96	77	7370.7865231733
2	97	78	7386.4554949442
2	98	79	7399.9048674861
2	99	80	7410.9318967493
2	100	81	7419.8414548484
2	119	82	7425.7746565841
2	120	83	7429.498051864
2	121	84	7431.3358225529
2	122	85	7431.8076882483
2	123	86	7431.9821079805
2	124	87	7432.0736350976
2	125	88	7432.07753469
2	126	89	7432.0782883036
2	127	90	7432.078658178
2	128	91	7432.0787948436
2	129	92	7432.0788672268
2	130	93	7432.0788672268
2	131	94	7432.0788672268
2	144	95	7432.0788672268
2	145	96	7432.8523968633
2	146	97	7433.4686699338
2	147	98	7429.9378216218
2	148	99	7423.6171526185
2	149	100	7415.2944321863
2	150	101	7405.4268881038
2	151	102	7394.062643101
2	152	103	7380.419301067
2	153	104	7365.0871147309
2	154	105	7348.5776500561
2	155	106	7330.0535667146
2	156	107	7310.5257828155
2	157	108	7288.914219701
2	158	109	7265.2855137098
2	159	110	7241.5824398418
2	160	111	7217.7831459336
2	161	112	7193.9118012662
2	162	113	7170.3536465505
2	186	114	7146.6099070193
2	187	115	7122.8008386843
2	214	116	7099.0151948713
2	215	117	7075.637285507
2	216	118	7052.2077924491
2	217	119	7029.2179605376
2	218	120	7005.8837740288
2	219	121	6983.5536752309
2	220	122	6963.7785421285
2	221	123	6942.2196267207
2	222	124	6920.8080086725
2	223	125	6899.020098781
2	224	126	6877.6709099556
2	225	127	6856.6042468437
2	226	128	6835.304796697
2	227	129	6813.5685893982
2	228	130	6791.3994656739
2	229	131	6770.1733040075
2	230	132	6748.3726566805
2	231	133	6726.2871065594
2	232	134	6704.4301927262
2	233	135	6683.1948079471
2	234	136	6661.4107259104
2	235	137	6640.1037097743
2	236	138	6618.654222049
2	237	139	6597.3997252519
2	238	140	6575.6184623744
2	239	141	6554.9558810764
2	240	142	6536.4887409862
2	241	143	6520.364547684
2	242	144	6507.4845042482
2	243	145	6498.0966508093
2	244	146	6492.7478034771
2	245	147	6491.2895503227
2	246	148	6490.6920808411
2	247	149	6490.5601588202
2	248	150	6490.5439880198
2	249	151	6490.5409911662
2	250	152	6490.5393551845
2	251	153	6488.7484836322
2	252	154	6486.8242761332
2	253	155	6486.601123195
2	254	156	6487.3404058695
2	255	157	6489.0283237748
2	256	158	6491.5033454037
2	257	159	6492.9368540096
2	258	160	6492.8441120506
2	259	161	6491.8106231593
2	260	162	6487.7073339336
2	261	163	6478.4211285017
2	262	164	6467.0580146042
2	263	165	6454.8126338178
2	264	166	6441.7855902776
2	265	167	6427.376333052
2	266	168	6412.2758864704
2	267	169	6396.7440204693
2	268	170	6381.5567894676
2	269	171	6366.202633087
2	270	172	6349.9596228386
2	271	173	6333.7820098448
2	272	174	6315.6279905106
2	273	175	6296.4068323468
2	274	176	6275.7739416856
2	275	177	6253.8489270559
2	276	178	6230.6031965801
2	277	179	6205.6237418014
2	278	180	6180.0049933314
2	279	181	6154.0318423806
2	280	182	6127.6812045861
2	281	183	6102.4396455335
2	282	184	6076.7474274507
2	283	185	6052.9643591064
2	284	186	6030.7569721229
2	285	187	6008.7132238553
2	286	188	5986.2885162836
2	287	189	5963.1704865686
2	288	190	5938.7045403657
2	289	191	5914.2408338479
2	290	192	5889.4362122427
2	291	193	5863.7984447355
2	292	194	5836.9619727843
2	293	195	5808.8244504943
2	294	196	5780.4239650679
2	295	197	5751.5294342362
2	296	198	5723.0701045631
2	297	199	5694.6242907602
2	298	200	5666.9207358915
3	3	2	3012.6589218262
3	4	3	3012.9254806543
3	5	4	3013.4585385501
3	6	5	3014.4386695189
3	7	6	3015.838663555
3	8	7	3017.6439078849
3	9	8	3019.8068582436
3	10	9	3022.1245476275
3	11	10	3024.2902383887
3	12	11	3026.5969444229
3	13	12	3028.1810082968
3	14	13	3029.3793755902
3	15	14	3034.3014049528
3	16	15	3041.7674492974
3	17	16	3051.2665874556
3	18	17	3062.1757303529
3	19	18	3074.5425628594
3	20	19	3087.6949500428
3	21	20	3097.4800593682
3	22	21	3102.8647639757
3	23	22	3105.4286118747
3	24	23	3106.4419805059
3	25	24	3108.2913177446
3	26	25	3110.4248695077
3	27	26	3112.9002616634
3	28	27	3115.6563623751
3	29	28	3118.8238172683
3	30	29	3122.3101202868
3	31	30	3127.0433815594
3	32	31	3131.6041322343
3	51	32	3138.3400384364
3	52	33	3146.1410805252
3	53	34	3153.8413728346
3	54	35	3162.0354838466
3	55	36	3169.8349189703
3	56	37	3177.8554026631
3	57	38	3185.7394876765
3	58	39	3193.7304347122
3	59	40	3202.1534311224
3	60	41	3209.5530541439
3	61	42	3214.5870374329
3	62	43	3217.0133225767
3	63	44	3221.8582767723
3	64	45	3229.5410192547
3	65	46	3238.2841690141
3	66	47	3248.5840302192
3	67	48	3260.834059279
3	68	49	3274.6678520247
3	69	50	3289.783933911
3	70	51	3306.7740414803
3	71	52	3325.7002688157
3	72	53	3346.8515325762
3	73	54	3369.1603259846
3	74	55	3392.7487571373
3	75	56	3415.681144759
3	76	57	3438.9416253289
3	77	58	3462.7106238214
3	78	59	3485.7884855645
3	79	60	3508.6623836308
3	80	61	3532.3797055079
3	81	62	3556.2834169056
3	82	63	3579.3118715587
3	83	64	3602.480567857
3	84	65	3625.5688714671
3	85	66	3649.0525996954
3	86	67	3672.0545439546
3	87	68	3690.0577750662
3	88	69	3707.577054889
3	89	70	3728.286653271
3	90	71	3750.4184356772
3	91	72	3771.9662211302
3	92	73	3793.7926965992
3	93	74	3815.4055366049
3	94	75	3839.1774175087
3	95	76	3862.9879145179
3	96	77	3886.6472836493
3	97	78	3910.5124436465
3	98	79	3930.9961535214
3	99	80	3947.7905777598
3	100	81	3961.4322107527
3	119	82	3971.7171730118
3	120	83	3978.1613375716
3	121	84	3981.3388276492
3	122	85	3982.1546794712
3	123	86	3982.4562497225
3	124	87	3982.6144993388
3	125	88	3982.6212417014
3	126	89	3982.622544693
3	127	90	3982.6231842027
3	128	91	3982.6234204964
3	129	92	3982.6235456464
3	130	93	3982.6235456464
3	131	94	3982.6235456464
3	144	95	3982.6235456464
3	145	96	3984.1622986413
3	146	97	3987.2912390527
3	147	98	3991.116143399
3	148	99	3994.1901649009
3	149	100	3998.2378727542
3	150	101	4003.0368968235
3	151	102	4008.563832892
3	152	103	4015.2438758537
3	153	104	4024.2205861631
3	154	105	4033.8865710722
3	155	106	4044.7320777897
3	156	107	4057.1809138139
3	157	108	4071.0823872323
3	158	109	4086.2813724471
3	159	110	4102.6225276248
3	160	111	4119.0327123507
3	161	112	4135.4925778055
3	162	113	4151.7364912668
3	186	114	4168.110374227
3	187	115	4184.5315590611
3	214	116	4200.9359172994
3	215	117	4217.0590713788
3	216	118	4233.8546963707
3	217	119	4250.6540493914
3	218	120	4267.7129019342
3	219	121	4284.8680677072
3	220	122	4305.4071869206
3	221	123	4324.1842801511
3	222	124	4342.9050427497
3	223	125	4361.8964498693
3	224	126	4380.4961456218
3	225	127	4398.8497012351
3	226	128	4417.2302987686
3	227	129	4435.722653146
3	228	130	4454.58331667
3	229	131	4472.6417432489
3	230	132	4491.1889207986
3	231	133	4509.9784830183
3	232	134	4528.7476971871
3	233	135	4547.3570852237
3	234	136	4566.4473178641
3	235	137	4585.1194792261
3	236	138	4603.8552217828
3	237	139	4622.1453461389
3	238	140	4641.0879199645
3	239	141	4659.6417130388
3	240	142	4674.3254261487
3	241	143	4684.8617524616
3	242	144	4691.9779251297
3	243	145	4696.7243678114
3	244	146	4699.4287131062
3	245	147	4700.1659971997
3	246	148	4700.4680742045
3	247	149	4700.5347731911
3	248	150	4700.5429490513
3	249	151	4700.5444642425
3	250	152	4700.5452913851
3	251	153	4701.9875849419
3	252	154	4706.1257319355
3	253	155	4710.5920444436
3	254	156	4716.7315355098
3	255	157	4724.2777170429
3	256	158	4733.4652973318
3	257	159	4744.8728375786
3	258	160	4757.9550477345
3	259	161	4773.0309315955
3	260	162	4789.5013314097
3	261	163	4806.5739339539
3	262	164	4825.046995927
3	263	165	4844.7925696464
3	264	166	4865.7985679943
3	265	167	4888.8920676492
3	266	168	4912.7779122997
3	267	169	4937.3461749949
3	268	170	4961.3692950011
3	269	171	4985.1733453396
3	270	172	5009.3024885408
3	271	173	5032.5608646286
3	272	174	5054.1021118889
3	273	175	5075.5342163761
3	274	176	5095.3550939273
3	275	177	5114.1857433273
3	276	178	5129.9354142637
3	277	179	5144.8826209201
3	278	180	5157.9696056248
3	279	181	5169.890615933
3	280	182	5182.0569989154
3	281	183	5193.8957959632
3	282	184	5206.3131493886
3	283	185	5220.8951516867
3	284	186	5238.7577024359
3	285	187	5256.8209697198
3	286	188	5275.3029290193
3	287	189	5291.3606988813
3	288	190	5306.7806173943
3	289	191	5322.1629936799
3	290	192	5336.8710416193
3	291	193	5350.0626538413
3	292	194	5358.4471146165
3	293	195	5363.2943086259
3	294	196	5361.9550603677
3	295	197	5358.7487237212
3	296	198	5357.6800209227
3	297	199	5361.4604168513
3	298	200	5369.010063854
7	4	3	4277.5150731722
7	5	4	4275.0325643911
7	6	5	4270.5093503784
7	7	6	4264.1168856786
7	8	7	4255.8517462435
7	9	8	4245.7097433714
7	10	9	4233.0816993321
7	11	10	4219.7132331948
7	12	11	4206.572345847
7	13	12	4193.2142128302
7	14	13	4179.6953862707
7	15	14	4166.4326389238
7	16	15	4153.9917222408
7	17	16	4140.9784571874
7	18	17	4128.7869244272
7	19	18	4121.3262575541
7	20	19	4114.7137634437
7	21	20	4110.318662462
7	22	21	4108.2232414226
7	23	22	4108.1308454672
7	24	23	4108.1163230681
7	25	24	4108.1119489589
7	26	25	4108.1116138425
7	27	26	4108.1116138425
7	28	27	4108.1116138425
7	29	28	4108.1116138425
7	30	29	4108.1116138425
7	31	30	4108.1115522442
7	32	31	4108.1115522442
7	51	32	4108.1115522442
7	52	33	4108.1115522442
7	53	34	4108.1115522442
7	54	35	4108.1115522442
7	55	36	4108.1115522442
7	56	37	4108.1115522442
7	57	38	4108.1115522442
7	58	39	4108.1115522442
7	59	40	4108.1115522442
7	60	41	4108.1115522442
7	61	42	4108.1115522442
7	62	43	4108.1115522442
7	63	44	4108.1115522442
7	64	45	4108.1115522442
7	65	46	4108.1115522442
7	66	47	4108.1115522442
7	67	48	4108.1115522442
7	68	49	4108.1115522442
7	69	50	4107.4255187755
7	70	51	4106.7154133228
7	71	52	4106.4501573829
7	72	53	4105.1876482704
7	73	54	4098.865359335
7	74	55	4087.706403613
7	75	56	4074.8151480533
7	76	57	4059.5621287077
7	77	58	4041.9851930392
7	78	59	4022.0997664792
7	79	60	4000.0251106057
7	80	61	3975.6747428056
7	81	62	3950.1596301933
7	82	63	3923.271360286
7	83	64	3896.2921551862
7	84	65	3870.2006988757
7	85	66	3843.9598376215
7	86	67	3817.3839492594
7	87	68	3790.5629028058
7	88	69	3764.406929087
7	89	70	3737.5546276109
7	90	71	3711.2079440603
7	91	72	3685.281343426
7	92	73	3658.8177367327
7	93	74	3632.2243443153
7	94	75	3605.6655161257
7	95	76	3580.9477677338
7	96	77	3554.4154178369
7	97	78	3527.4969735278
7	98	79	3500.9423806019
7	99	80	3475.7618380739
7	100	81	3454.0950345475
7	119	82	3436.7578548767
7	120	83	3423.3001806304
7	121	84	3414.1690976493
7	122	85	3409.3646059334
7	123	86	3408.1846964016
7	124	87	3408.1727722813
7	125	88	3408.1725940289
7	126	89	3408.1724867799
7	127	90	3408.1724867799
7	128	91	3408.1724867799
7	129	92	3408.1724867799
7	130	93	3408.1724867799
7	131	94	3408.1724867799
7	144	95	3408.1724867799
7	145	96	3408.1724867799
7	146	97	3408.1724867799
7	147	98	3408.1724867799
7	148	99	3408.1724867799
7	149	100	3408.1724867799
7	150	101	3408.1724867799
7	151	102	3408.1724867799
7	152	103	3408.1724867799
7	153	104	3408.1724867799
7	154	105	3408.1724867799
7	155	106	3408.1724867799
7	156	107	3408.1724867799
7	157	108	3408.1724867799
7	158	109	3408.1724867799
7	159	110	3408.1724867799
7	160	111	3408.1724867799
7	161	112	3408.1724867799
7	162	113	3408.1724867799
7	186	114	3408.1724867799
7	187	115	3408.1724867799
7	214	116	3408.1724867799
7	215	117	3408.1724867799
7	216	118	3408.1724867799
7	217	119	3408.1724867799
7	218	120	3408.1724867799
7	219	121	3408.1724867799
7	220	122	3408.1724867799
7	221	123	3408.1724867799
7	222	124	3408.1724867799
7	223	125	3408.1724867799
7	224	126	3408.1724867799
7	225	127	3408.1724867799
7	226	128	3408.1724867799
7	227	129	3408.1724867799
7	228	130	3408.1724867799
7	229	131	3408.1724867799
7	230	132	3408.1724867799
7	231	133	3408.1724867799
7	232	134	3406.2665323423
7	233	135	3402.1359072884
7	234	136	3396.4359101943
7	235	137	3390.4833437784
7	236	138	3386.8164533226
7	237	139	3387.8326220739
7	238	140	3391.8418815158
7	239	141	3396.2514875301
7	240	142	3400.5780563689
7	241	143	3401.166496741
7	242	144	3400.7118489916
7	243	145	3399.3147305369
7	244	146	3398.126902618
7	245	147	3397.1951835329
7	246	148	3396.6134484949
7	247	149	3396.2294064773
7	248	150	3397.0586106651
7	249	151	3398.1439646839
7	250	152	3399.9648582271
7	251	153	3402.7855662461
7	252	154	3405.1206017359
7	253	155	3407.1101807368
7	254	156	3409.0796565717
7	255	157	3411.0872065064
7	256	158	3413.0666157636
7	257	159	3415.1102629781
7	258	160	3417.6301859026
7	259	161	3422.6399051082
7	260	162	3429.1767370321
7	261	163	3435.3677996418
7	262	164	3446.7786801534
7	263	165	3460.6140139126
7	264	166	3477.1107155695
7	265	167	3494.9035650461
7	266	168	3513.5148185427
7	267	169	3533.411328033
7	268	170	3552.775543802
7	269	171	3572.8038308782
7	270	172	3592.4768979898
7	271	173	3612.4920829355
7	272	174	3632.2510409107
7	273	175	3651.9351719122
7	274	176	3671.4484825935
7	275	177	3691.1803997574
7	276	178	3710.4550092773
7	277	179	3730.3824018393
7	278	180	3750.9132602306
7	279	181	3771.0111853421
7	280	182	3791.0737423456
7	281	183	3809.4220336532
7	282	184	3824.5332955819
7	283	185	3836.4112989966
7	284	186	3845.0964633398
7	285	187	3850.8772641109
7	286	188	3853.3058618743
7	287	189	3850.256518921
7	288	190	3844.7015891524
7	289	191	3837.1543343123
7	290	192	3827.6512531916
7	291	193	3814.6505203817
7	292	194	3799.280578423
7	293	195	3782.4361675694
7	294	196	3763.3371191295
7	295	197	3741.6820692119
7	296	198	3720.5037499299
7	297	199	3698.1024764176
7	298	200	3676.3344397174
8	4	3	3116.3918055386
8	5	4	3117.1179593602
8	6	5	3118.4410359052
8	7	6	3120.310883338
8	8	7	3122.7285032201
8	9	8	3125.6951207806
8	10	9	3129.3889254141
8	11	10	3133.2993094773
8	12	11	3137.1431249108
8	13	12	3141.0504864529
8	14	13	3145.0048521512
8	15	14	3148.8843126163
8	16	15	3152.5233809903
8	17	16	3156.3298658743
8	18	17	3161.8308006877
8	19	18	3173.4125399761
8	20	19	3184.5347043992
8	21	20	3191.9272305715
8	22	21	3195.451712703
8	23	22	3195.607121992
8	24	23	3195.631548556
8	25	24	3195.638905774
8	26	25	3195.6394694374
8	27	26	3195.6394694374
8	28	27	3195.6394694374
8	29	28	3195.6394694374
8	30	29	3195.6394694374
8	31	30	3195.6395730453
8	32	31	3195.6395730453
8	51	32	3195.6395730453
8	52	33	3195.6395730453
8	53	34	3195.6395730453
8	54	35	3195.6395730453
8	55	36	3195.6395730453
8	56	37	3195.6395730453
8	57	38	3195.6395730453
8	58	39	3195.6395730453
8	59	40	3195.6395730453
8	60	41	3195.6395730453
8	61	42	3195.6395730453
8	62	43	3195.6395730453
8	63	44	3195.6395730453
8	64	45	3195.6395730453
8	65	46	3195.6395730453
8	66	47	3195.6395730453
8	67	48	3195.6395730453
8	68	49	3195.6395730453
8	69	50	3197.478208567
8	70	51	3201.4593316901
8	71	52	3207.2837956621
8	72	53	3214.7470751207
8	73	54	3221.4976703993
8	74	55	3224.83725918
8	75	56	3228.6952808003
8	76	57	3233.2634237279
8	77	58	3238.5299660057
8	78	59	3244.4767154042
8	79	60	3251.0858542555
8	80	61	3258.3788036504
8	81	62	3269.3559784328
8	82	63	3277.4115988331
8	83	64	3285.494463061
8	84	65	3293.311361227
8	85	66	3301.1585849966
8	86	67	3309.0985692052
8	87	68	3317.0585364067
8	88	69	3324.7243158081
8	89	70	3332.5941745926
8	90	71	3340.3565326347
8	91	72	3348.1240254077
8	92	73	3356.2148278923
8	93	74	3364.3431518268
8	94	75	3372.4707467488
8	95	76	3377.0603970847
8	96	77	3386.3141866945
8	97	78	3394.5332964055
8	98	79	3402.1752088959
8	99	80	3409.3221027169
8	100	81	3415.5779813319
8	119	82	3420.5929537344
8	120	83	3424.4857359648
8	121	84	3427.1270034619
8	122	85	3428.5167562257
8	123	86	3428.8580582051
8	124	87	3428.8615073898
8	125	88	3428.8615589513
8	126	89	3428.8615899742
8	127	90	3428.8615899742
8	128	91	3428.8615899742
8	129	92	3428.8615899742
8	130	93	3428.8615899742
8	131	94	3428.8615899742
8	144	95	3428.8615899742
8	145	96	3428.8615899742
8	146	97	3428.8615899742
8	147	98	3428.8615899742
8	148	99	3428.8615899742
8	149	100	3428.8615899742
8	150	101	3428.8615899742
8	151	102	3428.8615899742
8	152	103	3428.8615899742
8	153	104	3428.8615899742
8	154	105	3428.8615899742
8	155	106	3428.8615899742
8	156	107	3428.8615899742
8	157	108	3428.8615899742
8	158	109	3428.8615899742
8	159	110	3428.8615899742
8	160	111	3428.8615899742
8	161	112	3428.8615899742
8	162	113	3428.8615899742
8	186	114	3428.8615899742
8	187	115	3428.8615899742
8	214	116	3428.8615899742
8	215	117	3428.8615899742
8	216	118	3428.8615899742
8	217	119	3428.8615899742
8	218	120	3428.8615899742
8	219	121	3428.8615899742
8	220	122	3428.8615899742
8	221	123	3428.8615899742
8	222	124	3428.8615899742
8	223	125	3428.8615899742
8	224	126	3428.8615899742
8	225	127	3428.8615899742
8	226	128	3428.8615899742
8	227	129	3428.8615899742
8	228	130	3428.8615899742
8	229	131	3428.8615899742
8	230	132	3428.8615899742
8	231	133	3428.8615899742
8	232	134	3429.5448272355
8	233	135	3431.3172139283
8	234	136	3433.7629936509
8	235	137	3439.2973578617
8	236	138	3447.8398359417
8	237	139	3459.7085024603
8	238	140	3473.242224833
8	239	141	3489.3606929507
8	240	142	3508.0458202764
8	241	143	3528.6116311472
8	242	144	3550.7929782694
8	243	145	3575.0055950124
8	244	146	3601.2543946597
8	245	147	3628.5021506388
8	246	148	3655.4529832852
8	247	149	3682.5575418566
8	248	150	3710.5540834221
8	249	151	3737.911197801
8	250	152	3764.8612800169
8	251	153	3792.1303898295
8	252	154	3819.5031120611
8	253	155	3846.8516833585
8	254	156	3873.9239183695
8	255	157	3901.5195164815
8	256	158	3928.7282954104
8	257	159	3956.8200834348
8	258	160	3983.6202489304
8	259	161	4010.9305526813
8	260	162	4037.0106518249
8	261	163	4064.2425275872
8	262	164	4089.6227381596
8	263	165	4113.2370565149
8	264	166	4135.4674229513
8	265	167	4156.3446889721
8	266	168	4176.0875560268
8	267	169	4195.4719982225
8	268	170	4214.2646126073
8	269	171	4233.6774962926
8	270	172	4252.7460747545
8	271	173	4271.9890296028
8	272	174	4291.6674399286
8	273	175	4311.1965544306
8	274	176	4330.4946551843
8	275	177	4350.0089514362
8	276	178	4369.0524362321
8	277	179	4387.7474712553
8	278	180	4407.00865234
8	279	181	4425.8708211092
8	280	182	4445.2155390147
8	281	183	4462.9360017061
8	282	184	4477.5301973584
8	283	185	4489.0043412014
8	284	186	4497.3883421278
8	285	187	4502.9661925835
8	286	188	4507.4149584222
8	287	189	4512.0687416488
8	288	190	4516.9670455543
8	289	191	4522.6173967715
8	290	192	4528.3939718297
8	291	193	4532.1260200044
8	292	194	4533.1089948057
8	293	195	4531.622375443
8	294	196	4528.0656213775
8	295	197	4524.307688686
8	296	198	4522.4087203732
8	297	199	4522.3893687389
8	298	200	4524.1389909607
9	4	3	4801.231508283
9	5	4	4800.5780906452
9	6	5	4798.7711075676
9	7	6	4794.6460698881
9	8	7	4787.3891255158
9	9	8	4779.1746327425
9	10	9	4773.2587312452
9	11	10	4773.0415968738
9	12	11	4771.5714697624
9	13	12	4768.5365111516
9	14	13	4765.3431089441
9	15	14	4762.5989911614
9	16	15	4759.1653829936
9	17	16	4759.0733246597
9	18	17	4762.2541910402
9	19	18	4766.1274013679
9	20	19	4770.5462099372
9	21	20	4770.9181417941
9	22	21	4769.5469466187
9	23	22	4768.0694577949
9	24	23	4765.1055729939
9	25	24	4763.2879742002
9	26	25	4760.5663475886
9	27	26	4753.1111944591
9	28	27	4742.9056864517
9	29	28	4733.2437063986
9	30	29	4723.1790826077
9	31	30	4712.4712793049
9	32	31	4702.5539662397
9	51	32	4692.0841009854
9	52	33	4681.9647019696
9	53	34	4673.6023720623
9	54	35	4666.7517680275
9	55	36	4660.2509169776
9	56	37	4652.9009716454
9	57	38	4645.8586566834
9	58	39	4640.1227754944
9	59	40	4636.2345506164
9	60	41	4632.1996495213
9	61	42	4630.3329254612
9	62	43	4630.2534475783
9	63	44	4630.4573101134
9	64	45	4630.5493452252
9	65	46	4628.5127429859
9	66	47	4626.3531397056
9	67	48	4623.8864669359
9	68	49	4621.6225862827
9	69	50	4619.4636882265
9	70	51	4617.161355224
9	71	52	4615.006555172
9	72	53	4612.8641865685
9	73	54	4610.7852018938
9	74	55	4608.5661248171
9	75	56	4606.4167207164
9	76	57	4604.3108808415
9	77	58	4602.1559588627
9	78	59	4599.858406866
9	79	60	4597.5904460519
9	80	61	4595.3406653124
9	81	62	4593.1759385705
9	82	63	4590.8647625282
9	83	64	4588.5430133432
9	84	65	4586.3773832455
9	85	66	4584.0747416099
9	86	67	4582.0493841038
9	87	68	4579.942765291
9	88	69	4578.0539254609
9	89	70	4576.1645834483
9	90	71	4574.1981861812
9	91	72	4572.224545218
9	92	73	4570.164355014
9	93	74	4568.8776669967
9	94	75	4568.8361242928
9	95	76	4568.4954596618
9	96	77	4565.2583763147
9	97	78	4561.7927115707
9	98	79	4557.763997484
9	99	80	4553.7596804715
9	100	81	4550.0458554079
9	119	82	4546.2961659268
9	120	83	4543.0656234878
9	121	84	4541.356718106
9	122	85	4541.863153757
9	123	86	4546.049032517
9	124	87	4553.0651676714
9	125	88	4561.7727581972
9	126	89	4571.7734825202
9	127	90	4583.3866917646
9	128	91	4597.0608259711
9	129	92	4612.4803355937
9	130	93	4629.1569687037
9	131	94	4647.1706829966
9	144	95	4667.3845246983
9	145	96	4689.2230848285
9	146	97	4712.0172439573
9	147	98	4735.512095518
9	148	99	4758.5293962291
9	149	100	4781.5048950709
9	150	101	4804.8593383838
9	151	102	4828.1629433281
9	152	103	4851.0089074693
9	153	104	4873.9797137137
9	154	105	4892.665133205
9	155	106	4907.1211601017
9	156	107	4917.2521310244
9	157	108	4923.1785919665
9	158	109	4925.7094287854
9	159	110	4925.9363616534
9	160	111	4926.0383270261
9	161	112	4926.0622933727
9	162	113	4926.0771393825
9	186	114	4926.0775775729
9	187	115	4926.0778970037
9	214	116	4926.0778970037
9	215	117	4926.0778970037
9	216	118	4926.0778970037
9	217	119	4926.0778970037
9	218	120	4926.0778970037
9	219	121	4926.0778970037
9	220	122	4926.0778970037
9	221	123	4926.0778970037
9	222	124	4926.0778970037
9	223	125	4926.0778970037
9	224	126	4926.0778970037
9	225	127	4926.0778970037
9	226	128	4926.0778970037
9	227	129	4926.0778970037
9	228	130	4928.2269517694
9	229	131	4931.704318005
9	230	132	4936.6748698578
9	231	133	4944.1315949722
9	232	134	4953.242819032
9	233	135	4964.6592299097
9	234	136	4977.7296493581
9	235	137	4992.95998225
9	236	138	5009.6243117224
9	237	139	5028.0243134431
9	238	140	5048.6290092595
9	239	141	5066.7443385908
9	240	142	5083.7683367697
9	241	143	5097.4375018517
9	242	144	5109.9775138538
9	243	145	5122.3314574832
9	244	146	5135.9647053793
9	245	147	5152.5369069435
9	246	148	5170.9620901317
9	247	149	5188.0067859895
9	248	150	5200.1131504669
9	249	151	5214.7361908975
9	250	152	5226.0243125523
9	251	153	5234.4499227497
9	252	154	5240.0265239192
9	253	155	5246.4904226688
9	254	156	5254.4098996527
9	255	157	5264.8872483586
9	256	158	5277.1024856175
9	257	159	5291.8190573551
9	258	160	5308.1533030922
9	259	161	5326.5997567273
9	260	162	5347.1886283819
9	261	163	5369.5925950822
9	262	164	5393.4194058767
9	263	165	5416.9082969901
9	264	166	5440.3319748758
9	265	167	5463.8660165806
9	266	168	5488.096174749
9	267	169	5511.34822677
9	268	170	5535.3430308102
9	269	171	5558.8288114626
9	270	172	5582.1727029196
9	271	173	5606.188664383
9	272	174	5629.4893535161
9	273	175	5653.7830109277
9	274	176	5677.5629658809
9	275	177	5701.107180109
9	276	178	5725.1063240808
9	277	179	5748.9337932412
9	278	180	5770.6861840891
9	279	181	5787.9415063595
9	280	182	5801.4853986243
9	281	183	5810.5322223117
9	282	184	5815.0819774215
9	283	185	5815.1414821738
9	284	186	5815.1866801553
9	285	187	5815.1883697749
9	286	188	5815.1892081443
9	287	189	5815.1896114017
9	288	190	5815.1896114017
9	289	191	5815.1896114017
9	290	192	5817.3495380867
9	291	193	5821.6307446393
9	292	194	5827.5212022387
9	293	195	5835.4873088455
9	294	196	5845.975259682
9	295	197	5858.8867830295
9	296	198	5874.0200494997
9	297	199	5890.9533313372
9	298	200	5910.079351323
10	4	3	3853.9755362356
10	5	4	3855.2865158091
10	6	5	3858.911942745
10	7	6	3861.6566502304
10	8	7	3862.2068057964
10	9	8	3858.173298124
10	10	9	3848.8067807112
10	11	10	3837.2712069386
10	12	11	3826.119932773
10	13	12	3814.6485412947
10	14	13	3804.3724000333
10	15	14	3797.0282240756
10	16	15	3792.8930745947
10	17	16	3787.7907058315
10	18	17	3780.6746958633
10	19	18	3772.0098228368
10	20	19	3762.1243758971
10	21	20	3751.4600522647
10	22	21	3739.9028357865
10	23	22	3728.0543859189
10	24	23	3716.8017566143
10	25	24	3709.9010952115
10	26	25	3701.2929286023
10	27	26	3693.3960561556
10	28	27	3687.0990405766
10	29	28	3681.1425478923
10	30	29	3675.2896283046
10	31	30	3669.3627727332
10	32	31	3664.0108376704
10	51	32	3658.3607146391
10	52	33	3651.972290174
10	53	34	3643.1844971666
10	54	35	3633.3169384536
10	55	36	3624.4255046848
10	56	37	3615.0867396329
10	57	38	3606.1760553954
10	58	39	3598.9184098093
10	59	40	3593.8225561258
10	60	41	3586.3192569475
10	61	42	3576.7039033166
10	62	43	3564.7206654648
10	63	44	3552.5956984932
10	64	45	3541.228161068
10	65	46	3530.1447451834
10	66	47	3519.1102758682
10	67	48	3507.436596746
10	68	49	3496.4614962928
10	69	50	3485.2074194847
10	70	51	3473.2056334934
10	71	52	3461.9757464818
10	72	53	3450.8115214723
10	73	54	3439.9776002406
10	74	55	3428.4136351244
10	75	56	3417.226555489
10	76	57	3406.295469712
10	77	58	3395.1658381575
10	78	59	3383.299558333
10	79	60	3371.5861095446
10	80	61	3359.9665562819
10	81	62	3348.7862855852
10	82	63	3336.8496409821
10	83	64	3324.8583887489
10	84	65	3313.6734524454
10	85	66	3301.7808859124
10	86	67	3290.7480668808
10	87	68	3278.6748397349
10	88	69	3267.8497240699
10	89	70	3257.0217303509
10	90	71	3245.7521258454
10	91	72	3234.4410070479
10	92	73	3222.6338665511
10	93	74	3215.2597385863
10	94	75	3205.8278907778
10	95	76	3194.2063542693
10	96	77	3182.9120993973
10	97	78	3172.0130713846
10	98	79	3160.4894973078
10	99	80	3149.035707655
10	100	81	3138.4128296577
10	119	82	3127.6873665023
10	120	83	3118.4468509674
10	121	84	3113.2597069995
10	122	85	3109.0578798718
10	123	86	3106.6772020523
10	124	87	3104.6001116247
10	125	88	3102.022274606
10	126	89	3099.0616120327
10	127	90	3095.6235816606
10	128	91	3091.5754251411
10	129	92	3087.0117745524
10	130	93	3082.0771252176
10	131	94	3076.746830867
10	144	95	3070.7655143836
10	145	96	3064.303440444
10	146	97	3057.5586028354
10	147	98	3050.6064289247
10	148	99	3043.7955632724
10	149	100	3036.9970668775
10	150	101	3030.0864400501
10	151	102	3023.1908563985
10	152	103	3016.4306895824
10	153	104	3009.6650073254
10	154	105	3004.2631478133
10	155	106	3000.1026775565
10	156	107	2997.1869661029
10	157	108	2995.4813201011
10	158	109	2994.7529407625
10	159	110	2994.6876290794
10	160	111	2994.6582832638
10	161	112	2994.6513857066
10	162	113	2994.6471129985
10	186	114	2994.6469868866
10	187	115	2994.6468949538
10	214	116	2994.6468949538
10	215	117	2994.6468949538
10	216	118	2994.6468949538
10	217	119	2994.6468949538
10	218	120	2994.6468949538
10	219	121	2994.6468949538
10	220	122	2994.6468949538
10	221	123	2994.6468949538
10	222	124	2994.6468949538
10	223	125	2994.6468949538
10	224	126	2994.6468949538
10	225	127	2994.6468949538
10	226	128	2994.6468949538
10	227	129	2994.6468949538
10	228	130	2994.0518723453
10	229	131	2993.1198661819
10	230	132	2991.7876553507
10	231	133	2989.7890985997
10	232	134	2987.3595713072
10	233	135	2984.430001923
10	234	136	2981.0759967926
10	235	137	2977.1677354809
10	236	138	2972.8914957805
10	237	139	2968.1698645876
10	238	140	2962.6259740449
10	239	141	2958.1613811759
10	240	142	2955.7845805906
10	241	143	2955.7223059676
10	242	144	2951.9163289271
10	243	145	2948.0484518732
10	244	146	2941.8709050963
10	245	147	2936.7724913536
10	246	148	2933.3642032341
10	247	149	2939.7987431051
10	248	150	2953.8903324494
10	249	151	2966.5956159907
10	250	152	2980.2877497212
10	251	153	2990.5077477964
10	252	154	2997.2434817431
10	253	155	3002.9142473273
10	254	156	3004.1317190748
10	255	157	3001.6526805481
10	256	158	2998.7624413637
10	257	159	2995.2803630877
10	258	160	2991.4155280399
10	259	161	2987.0509248825
10	260	162	2982.1794056187
10	261	163	2976.8784179204
10	262	164	2974.3689167439
10	263	165	2973.0317403432
10	264	166	2971.6982764034
10	265	167	2970.5745697918
10	266	168	2969.5483545434
10	267	169	2968.5635648373
10	268	170	2967.5473174973
10	269	171	2966.5526287273
10	270	172	2965.5639493632
10	271	173	2964.5468059468
10	272	174	2963.5599563224
10	273	175	2962.6278536617
10	274	176	2961.7950267949
10	275	177	2960.9704560922
10	276	178	2960.1299527389
10	277	179	2959.2954618189
10	278	180	2958.5336447528
10	279	181	2957.9293250217
10	280	182	2957.4549878171
10	281	183	2957.1381479475
10	282	184	2956.978805413
10	283	185	2956.9767214243
10	284	186	2956.9751384906
10	285	187	2956.9750793163
10	286	188	2956.9750499548
10	287	189	2956.9750358318
10	288	190	2956.9750358318
10	289	191	2956.9750358318
10	290	192	2956.8989330261
10	291	193	2956.7473069607
10	292	194	2956.5386865874
10	293	195	2956.2571950363
10	294	196	2955.8871203646
10	295	197	2955.4315282439
10	296	198	2954.897540365
10	297	199	2954.3000376865
10	298	200	2953.6251627107
13	4	3	1.529956558696
13	5	4	3.0595701136393
13	6	5	5.6256167356856
13	7	6	8.0354872251628
13	8	7	10.361485390365
13	9	8	12.414595725434
13	10	9	13.758327699389
13	11	10	13.486077842076
13	12	11	14.364200878603
13	13	12	9.8642008786027
13	14	13	5.3642008786027
13	15	14	7.2532449729445
13	16	15	7.5602386041279
13	17	16	9.6600335571417
13	18	17	11.093920807514
13	19	18	12.576300609435
13	20	19	13.375160928496
13	21	20	9.9508484736586
13	22	21	5.5128588235507
13	23	22	5.9648504470045
13	24	23	8.4380567601219
13	25	24	10.478448064699
13	26	25	12.088823430663
13	27	26	14.025710183737
13	28	27	14.241256639391
13	29	28	13.966804568941
13	30	29	14.297111878573
13	31	30	14.547317251918
13	32	31	14.007317079796
13	51	32	13.822392472025
13	52	33	13.457757086476
13	53	34	13.289559767518
13	54	35	14.141927082703
13	55	36	13.460769892257
13	56	37	13.841152207513
13	57	38	13.605248991895
13	58	39	13.789656493563
13	59	40	14.535226753965
13	60	41	12.769232381725
13	61	42	8.6869428665799
13	62	43	4.1869428665799
13	63	44	6.3999020026254
13	64	45	8.227145067295
13	65	46	10.764580258187
13	66	47	12.681205931581
13	67	48	15.082255778224
13	68	49	17.032242571092
13	69	50	18.611028133281
13	70	51	20.878115318082
[...]
33	262	164	0
33	263	165	0
33	264	166	0
33	265	167	0
33	266	168	0
33	267	169	0
33	268	170	0
33	269	171	0
33	270	172	0
33	271	173	0
33	272	174	0
33	273	175	0
33	274	176	0
33	275	177	0
33	276	178	0
33	277	179	0
33	278	180	0
33	279	181	1.6362425521947
33	280	182	2.4872335343389
33	281	183	2.5063335264567
33	282	184	2.0548161260318
33	283	185	1.991450436064
33	284	186	2.5260495909955
33	285	187	1.3588360099355
33	286	188	1.4733567658579
33	287	189	1.8774879056029
33	288	190	2.3126623104326
33	289	191	1.7553618181497
33	290	192	2.0735137168085
33	291	193	1.8448595979251
33	292	194	1.355286316108
33	293	195	1.3736440609908
33	294	196	1.4536284394562
33	295	197	1.1870275607129
33	296	198	0.56236147137824
33	297	199	-0.014263383229263
33	298	200	-0.81733108649496
34	7	6	2.6786124171986
34	8	7	3.022450770385
34	9	8	5.7179942519597
34	10	9	5.2110568147645
34	11	10	5.801543003092
34	12	11	7.3600817462656
34	13	12	3.6162769999687
34	14	13	0.973
34	15	14	0.973
34	16	15	5.6668360102319
34	17	16	0.973
34	18	17	6.8414049266297
34	19	18	7.8499047964105
34	20	19	8.2043581838533
34	21	20	11.987175135501
34	22	21	0.973
34	23	22	3.4065729898193
34	24	23	3.5776123780435
34	25	24	0.973
34	26	25	1.234559771752
34	27	26	4.0361800078627
34	28	27	0.99567754363704
34	29	28	5.0106790521765
34	30	29	0.973
34	31	30	4.2980524875761
34	32	31	0.973
34	51	32	0.973
34	52	33	0.973
34	53	34	4.1958237035116
34	54	35	1.764591803646
34	55	36	2.0167987465632
34	56	37	5.7377381508755
34	57	38	5.9962368441174
34	58	39	7.8320742632271
34	59	40	7.4475733697643
34	60	41	9.9899877504072
34	61	42	9.1437548495455
34	62	43	13.311875484608
34	63	44	13.817474460887
34	64	45	15.910363457149
34	65	46	21.003165496546
34	66	47	22.738988622041
34	67	48	16.78758089832
34	68	49	6.1293214356029
34	69	50	12.868532504955
34	70	51	0.48233052997725
34	71	52	6.0324923668764
34	72	53	5.736666955492
34	73	54	1.8918751883684
34	74	55	4.9848569929226
34	75	56	12.439536750733
34	76	57	6.6211956902893
34	77	58	0.31030718244865
34	78	59	9.4190145794934
34	79	60	1.2528439061363
34	80	61	7.9822023229074
34	81	62	-0.096162255686128
34	82	63	0.973
34	83	64	-0.24697811540145
34	84	65	16.38754582256
34	85	66	18.765076708413
34	86	67	13.318514004661
34	87	68	7.1326149195205
34	88	69	7.4776068410957
34	89	70	4.7671078799722
34	90	71	5.6895383715162
34	91	72	3.2629153290847
34	92	73	8.2560408391598
34	93	74	5.9988182843185
34	94	75	4.1937499525803
34	95	76	1.2619378396343
34	96	77	6.0811521827195
34	97	78	7.3408491514415
34	98	79	5.709314476844
34	99	80	7.8912081563995
34	100	81	3.8829516471251
34	119	82	9.3439750368482
34	120	83	3.8162922144332
34	121	84	3.2999135597251
34	122	85	2.5074472565669
34	123	86	10.196710304938
34	124	87	7.4856875130708
34	125	88	-0.064770772586332
34	126	89	5.100385943767
34	127	90	4.668225799949
34	128	91	3.0057992900353
34	129	92	14.652927796131
34	130	93	2.4415920135214
34	131	94	2.4384575917349
34	144	95	4.0958651032147
34	145	96	9.2985608217832
34	146	97	0.973
34	147	98	0.973
34	148	99	0.973
34	149	100	0.973
34	150	101	0.973
34	151	102	0.973
34	152	103	0.973
34	153	104	0.973
34	154	105	1.112869998144
34	155	106	1.1103496145982
34	156	107	1.1100380937466
34	157	108	1.1100284532826
34	158	109	1.1100080512862
34	159	110	0.973
34	160	111	0.973
34	161	112	0.973
34	162	113	0.973
34	186	114	0.973
34	187	115	0.973
34	214	116	0.973
34	215	117	0.973
34	216	118	0.973
34	217	119	0.973
34	218	120	0.973
34	219	121	0.973
34	220	122	0.973
34	221	123	0.973
34	222	124	0.973
34	223	125	0.973
34	224	126	0.973
34	225	127	0.973
34	226	128	0.973
34	227	129	0.973
34	228	130	0.973
34	229	131	0.973
34	230	132	0.973
34	231	133	0.973
34	232	134	1.8400124081958
34	233	135	2.40052006464
34	234	136	3.3987140031605
34	235	137	4.4748386955671
34	236	138	6.337217485653
34	237	139	6.3787659598739
34	238	140	6.2354256633473
34	239	141	7.7695996633478
34	240	142	12.26586415894
34	241	143	13.875496668582
34	242	144	11.840118390713
34	243	145	11.985817223293
34	244	146	13.911681623505
34	245	147	18.241310623667
34	246	148	21.55932025651
34	247	149	17.035100621059
34	248	150	9.2514184532524
34	249	151	9.954754202018
34	250	152	0.973
34	251	153	0.973
34	252	154	0.973
34	253	155	0.973
34	254	156	0.973
34	255	157	0.973
34	256	158	0.973
34	257	159	0.973
34	258	160	0.973
34	259	161	0.973
34	260	162	1.1100183566929
34	261	163	0.973
34	262	164	0.973
34	263	165	0.973
34	264	166	0.973
34	265	167	0.973
34	266	168	0.973
34	267	169	0.973
34	268	170	0.973
34	269	171	0.973
34	270	172	0.973
34	271	173	0.973
34	272	174	0.973
34	273	175	0.973
34	274	176	0.973
34	275	177	0.973
34	276	178	0.973
34	277	179	0.973
34	278	180	0.973
34	279	181	1.8345638396413
34	280	182	3.7871008940026
34	281	183	5.4613219656235
34	282	184	5.8901756601957
34	283	185	6.8612958725433
34	284	186	9.9966047593641
34	285	187	6.8660326008687
34	286	188	7.9577689240017
34	287	189	10.609576002573
34	288	190	14.121963503444
34	289	191	12.449650254949
34	290	192	15.575773671519
34	291	193	15.478614746565
34	292	194	13.196341517699
34	293	195	14.135171318161
34	294	196	15.613550874767
34	295	197	14.387246055335
34	296	198	9.9385244441718
34	297	199	5.5105546371601
34	298	200	-0.74895096808762
37	7	6	2.208746208949
37	8	7	4.1928878997685
37	9	8	6.4717075231718
37	10	9	8.0818452394567
37	11	10	9.4132803196452
37	12	11	10.365035574221
37	13	12	9.4584315321773
37	14	13	9.6260973635029
37	15	14	9.7292562136093
37	16	15	10.202758690123
37	17	16	9.8805659339197
37	18	17	10.570586465941
37	19	18	9.9064603577034
37	20	19	9.6558542474538
37	21	20	10.343965013781
37	22	21	10.379371142657
37	23	22	9.6168351994727
37	24	23	9.5285092949301
37	25	24	8.6171694698891
37	26	25	4.6744658888581
37	27	26	4.0686744113357
37	28	27	3.9997733046437
37	29	28	4.7637904439957
37	30	29	6.493964188676
37	31	30	7.8629128030871
37	32	31	10.22242777144
37	51	32	11.806244414313
37	52	33	13.660163514865
37	53	34	15.685675723678
37	54	35	16.092879288855
37	55	36	16.745774306778
37	56	37	16.96223065192
37	57	38	16.916256996828
37	58	39	16.572233304546
37	59	40	15.705833952503
37	60	41	14.804858275926
37	61	42	10.304858275926
37	62	43	6.1049742301266
37	63	44	3.8526445613272
37	64	45	4.3712306265866
37	65	46	4.6974172940857
37	66	47	6.2360176243501
37	67	48	8.5334707996489
37	68	49	10.58441474828
37	69	50	13.169596303805
37	70	51	14.973952970994
37	71	52	16.425358537283
37	72	53	15.989086191916
37	73	54	16.461911230699
37	74	55	16.462465352124
37	75	56	16.305490932662
37	76	57	16.392707620027
37	77	58	15.713581628913
37	78	59	16.584551402905
37	79	60	16.284923366785
37	80	61	16.641935907143
37	81	62	16.363058670798
37	82	63	15.753249100946
37	83	64	16.553394254229
37	84	65	16.712739724667
37	85	66	16.901437010501
37	86	67	16.930762385602
37	87	68	16.503825774837
37	88	69	16.845014320781
37	89	70	15.704430536881
37	90	71	16.211400309928
37	91	72	16.860245706515
37	92	73	15.904241808016
37	93	74	16.716233099766
37	94	75	16.512110036008
37	95	76	16.606791833324
37	96	77	15.814160108894
37	97	78	16.273566070783
37	98	79	16.760464077514
37	99	80	15.72047834003
37	100	81	16.82724084696
37	119	82	16.320892118757
37	120	83	16.244863276628
37	121	84	15.824136954804
37	122	85	16.416787477887
37	123	86	15.819786981541
37	124	87	16.960595586641
37	125	88	16.821707089224
37	126	89	16.58220654796
37	127	90	16.419048888843
37	128	91	16.354794174923
37	129	92	16.438489857969
37	130	93	16.568270632836
37	131	94	15.913405914373
37	144	95	16.818406217896
37	145	96	16.591935661926
37	146	97	15.686215329987
37	147	98	16.794185339684
37	148	99	16.678052330857
37	149	100	16.718553737296
37	150	101	15.732206406725
37	151	102	15.663422546641
37	152	103	11.163422546641
37	153	104	6.7513642672342
37	154	105	5.2006174565429
37	155	106	6.0763006472165
37	156	107	5.6965376164202
37	157	108	5.4353868455995
37	158	109	7.1215206458835
37	159	110	8.5288384449805
37	160	111	10.044717586939
37	161	112	12.10030347683
37	162	113	13.657732216702
37	186	114	15.825794406715
37	187	115	18.193057052688
37	214	116	20.207601291677
37	215	117	20.472954390667
37	216	118	20.839945998907
37	217	119	21.227665215594
37	218	120	20.197763277454
37	219	121	20.182064599151
37	220	122	20.168509553632
37	221	123	20.758075504031
37	222	124	21.076367180239
37	223	125	20.157784176248
37	224	126	20.452429392169
37	225	127	20.451148406303
37	226	128	20.551863037425
37	227	129	16.703999459369
37	228	130	12.31169095799
37	229	131	8.4200041575766
37	230	132	3.9200041575766
37	231	133	0.38759270523496
37	232	134	0.14016313570807
37	233	135	0.056836779882062
37	234	136	0.0043101205890237
37	235	137	0.0019892155925008
37	236	138	0.0010213018171955
37	237	139	0.00051702348805359
37	238	140	0
37	239	141	2.2968007840216
37	240	142	3.8409814396175
37	241	143	5.753418041626
37	242	144	7.7294477188028
37	243	145	9.3492532427656
37	244	146	10.991582763963
37	245	147	12.640321055194
37	246	148	14.179254368693
37	247	149	16.319572914275
37	248	150	18.788160389382
37	249	151	20.642285821916
37	250	152	19.860525508206
37	251	153	16.196725455955
37	252	154	11.696725455955
37	253	155	7.1967254559551
37	254	156	5.9690379499418
37	255	157	7.3589497797
37	256	158	7.2015335405985
37	257	159	7.2632343634306
37	258	160	8.622116397046
37	259	161	10.691460042893
37	260	162	12.245372723629
37	261	163	13.84191052332
37	262	164	16.124411406093
37	263	165	15.996270306619
37	264	166	16.562211503113
37	265	167	16.581955849753
37	266	168	16.413871427953
37	267	169	16.534464434466
37	268	170	16.809742982501
37	269	171	16.527673734842
37	270	172	16.211827761355
37	271	173	16.79586108816
37	272	174	15.713287246741
37	273	175	15.720503904672
37	274	176	16.869771741076
37	275	177	15.803036024074
37	276	178	16.602844812886
37	277	179	16.25702376112
37	278	180	16.674210831571
37	279	181	16.577300031834
37	280	182	16.313372854238
37	281	183	15.830307942584
37	282	184	16.925205654769
37	283	185	18.589303023277
37	284	186	21.04403935692
37	285	187	23.175091868408
37	286	188	24.859288488377
37	287	189	27.169283262944
37	288	190	29.569206418401
37	289	191	29.252591991122
37	290	192	29.297966338624
37	291	193	29.935085148621
37	292	194	29.022365965345
37	293	195	30.056513677095
37	294	196	29.050038062618
37	295	197	28.924621882267
37	296	198	29.256757868151
37	297	199	29.415150207049
37	298	200	29.925606928393
38	8	7	1.9841416908195
38	9	8	2.2788196234033
38	10	9	1.610137716285
38	11	10	1.3314350801885
38	12	11	0.95175525457598
38	13	12	-0.90660404204391
38	14	13	0.16766583132557
38	15	14	0.10315885010641
38	16	15	0.47350247651339
38	17	16	-0.322192756203
38	18	17	0.6900205320213
38	19	18	-0.66412610823754
38	20	19	-0.25060611024965
38	21	20	0.68811076632701
38	22	21	0.035406128875911
38	23	22	-0.76253594318405
38	24	23	-0.088325904542581
38	25	24	-0.911339825041
38	26	25	-3.9427035810309
38	27	26	-0.60579147752248
38	28	27	-0.068901106691919
38	29	28	0.76401713935193
38	30	29	1.7301737446804
38	31	30	1.3689486144111
38	32	31	2.3595149683533
38	51	32	1.583816642873
38	52	33	1.8539191005519
38	53	34	2.0255122088129
38	54	35	0.40720356517653
38	55	36	0.65289501792286
38	56	37	0.2164563451428
38	57	38	-0.045973655092531
38	58	39	-0.34402369228192
38	59	40	-0.86639935204294
38	60	41	-0.90097567657709
38	61	42	-4.5
38	62	43	-4.1998840457993
38	63	44	-2.2523296687994
38	64	45	0.51858606525946
38	65	46	0.32618666749913
38	66	47	1.5386003302643
38	67	48	2.2974531752989
38	68	49	2.0509439486312
38	69	50	2.5851815555245
38	70	51	1.8043566671899
38	71	52	1.451405566289
38	72	53	-0.43627234536689
38	73	54	0.47282503878232
38	74	55	0.00055412142537747
38	75	56	-0.1569744194625
38	76	57	0.087216687365437
38	77	58	-0.67912599111442
38	78	59	0.87096977399196
38	79	60	-0.29962803611997
38	80	61	0.35701254035812
38	81	62	-0.27887723634485
38	82	63	-0.6098095698515
38	83	64	0.80014515328221
38	84	65	0.15934547043871
38	85	66	0.18869728583377
38	86	67	0.029325375100598
38	87	68	-0.42693661076482
38	88	69	0.34118854594417
38	89	70	-1.1405837839004
38	90	71	0.5069697730476
38	91	72	0.64884539658669
38	92	73	-0.9560038984986
38	93	74	0.81199129174929
38	94	75	-0.20412306375801
38	95	76	0.094681797316298
38	96	77	-0.79263172443025
38	97	78	0.45940596188884
38	98	79	0.48689800673165
38	99	80	-1.0399857374839
38	100	81	1.1067625069292
38	119	82	-0.50634872820228
38	120	83	-0.076028842129745
38	121	84	-0.4207263218239
38	122	85	0.59265052308329
38	123	86	-0.59700049634557
38	124	87	1.1408086051
38	125	88	-0.13888849741779
38	126	89	-0.23950054126326
38	127	90	-0.16315765911713
38	128	91	-0.064254713919944
38	129	92	0.083695683046244
38	130	93	0.12978077486623
38	131	94	-0.65486471846234
38	144	95	0.90500030352269
38	145	96	-0.22647055597045
38	146	97	-0.90572033193894
38	147	98	1.1079700096976
38	148	99	-0.11613300882746
38	149	100	0.040501406439581
38	150	101	-0.98634733057115
38	151	102	-0.068783860083771
38	152	103	-4.5
38	153	104	-4.4120582794072
38	154	105	-1.5507468106913
38	155	106	0.87568319067359
38	156	107	-0.37976303079631
38	157	108	-0.26115077082068
38	158	109	1.686133800284
38	159	110	1.4073177990969
38	160	111	1.5158791419584
38	161	112	2.0555858898908
38	162	113	1.5574287398718
38	186	114	2.168062190013
38	187	115	2.3672626459738
38	214	116	2.0145442389883
38	215	117	0.26535309899014
38	216	118	0.36699160824064
38	217	119	0.38771921668667
38	218	120	-1.0299019381404
38	219	121	-0.015698678302577
38	220	122	-0.013555045519027
38	221	123	0.58956595039927
38	222	124	0.31829167620745
38	223	125	-0.91858300399035
38	224	126	0.29464521592017
38	225	127	-0.0012809858657441
38	226	128	0.10071463112254
38	227	129	-3.8478635780562
38	228	130	-4.3923085013792
38	229	131	-3.8916868004133
38	230	132	-4.5
38	231	133	-3.5324114523417
38	232	134	-0.24742956952689
38	233	135	-0.083326355826008
38	234	136	-0.052526659293038
38	235	137	-0.002320904996523
38	236	138	-0.0009679137753053
38	237	139	-0.00050427832914188
38	238	140	-0.00051702348805359
38	239	141	2.2968007840216
38	240	142	1.5441806555958
38	241	143	1.9124366020085
38	242	144	1.9760296771768
38	243	145	1.6198055239627
38	244	146	1.6423295211978
38	245	147	1.648738291231
38	246	148	1.5389333134983
38	247	149	2.1403185455827
38	248	150	2.4685874751071
38	249	151	1.8541254325336
38	250	152	-0.78176031371013
38	251	153	-3.6638000522507
38	252	154	-4.5
38	253	155	-4.5
38	254	156	-1.2276875060133
38	255	157	1.3899118297582
38	256	158	-0.15741623910144
38	257	159	0.061700822832062
38	258	160	1.3588820336154
38	259	161	2.0693436458474
38	260	162	1.5539126807358
38	261	163	1.5965377996909
38	262	164	2.2825008827727
38	263	165	-0.12814109947328
38	264	166	0.5659411964938
38	265	167	0.019744346640074
38	266	168	-0.16808442180045
38	267	169	0.12059300651308
38	268	170	0.27527854803484
38	269	171	-0.28206924765836
38	270	172	-0.31584597348701
38	271	173	0.58403332680464
38	272	174	-1.0825738414191
38	273	175	0.007216657930984
38	274	176	1.149267836404
38	275	177	-1.0667357170023
38	276	178	0.79980878881179
38	277	179	-0.34582105176523
38	278	180	0.41718707045075
38	279	181	-0.096910799737088
38	280	182	-0.26392717759591
38	281	183	-0.48306491165422
38	282	184	1.094897712185
38	283	185	1.6640973685076
38	284	186	2.4547363336431
38	285	187	2.1310525114881
38	286	188	1.6841966199689
38	287	189	2.3099947745679
38	288	190	2.3999231554568
38	289	191	-0.3166144272791
38	290	192	0.045374347502367
38	291	193	0.63711880999617
38	292	194	-0.91271918327547
38	293	195	1.0341477117501
38	294	196	-1.0064756144769
38	295	197	-0.12541618035175
38	296	198	0.33213598588481
38	297	199	0.1583923388971
38	298	200	0.51045672134496
39	8	7	3.3240217372676
39	9	8	5.0014677217055
39	10	9	4.6847377759843
39	11	10	4.6616450922487
39	12	11	4.090337924311
39	13	12	0.973
39	14	13	2.0457284173844
39	15	14	1.9062980022009
39	16	15	2.8645724425394
39	17	16	0.973
39	18	17	3.4868715732303
39	19	18	0.973
39	20	19	0.973
39	21	20	3.4266242080584
39	22	21	1.8025633119818
39	23	22	0.973
39	24	23	1.4467448124319
39	25	24	0.973
39	26	25	0.973
39	27	26	0.973
39	28	27	1.2424434048467
39	29	28	2.2269399785389
39	30	29	4.1563681820261
39	31	30	4.1283204316198
39	32	31	7.5147243045373
39	51	32	6.3379970374302
39	52	33	8.107724863632
39	53	34	9.8801339302602
39	54	35	3.8506239749196
39	55	36	4.9865240602174
39	56	37	3.2639484898553
39	57	38	2.1857972534739
39	58	39	0.95589688545253
39	59	40	0.973
39	60	41	0.973
39	61	42	0.973
39	62	43	0.973
39	63	44	0.973
39	64	45	1.8748971059386
39	65	46	1.7154472694351
39	66	47	3.7455599428819
39	67	48	6.3039247934449
39	68	49	6.9617702665622
39	69	50	10.16134221757
39	70	51	8.6539236506102
39	71	52	8.0571359692232
39	72	53	0.973
39	73	54	4.1920814078118
39	74	55	2.3184996876125
39	75	56	1.6802005484228
39	76	57	2.6522809143996
39	77	58	0.973
39	78	59	5.8125873835013
39	79	60	1.1186050327049
39	80	61	3.7704585138751
39	81	62	1.2043330731134
39	82	63	0.973
39	83	64	5.5196283684828
39	84	65	2.9892661417615
39	85	66	3.1399448091664
39	86	67	2.4947312875599
39	87	68	0.973
39	88	69	3.7492661163245
39	89	70	0.973
39	90	71	4.2663233684476
39	91	72	5.0025601547333
39	92	73	0.973
39	93	74	5.6190961925223
39	94	75	1.5101449428904
39	95	76	2.7131378452575
39	96	77	0.973
39	97	78	4.0949209039809
39	98	79	4.3201796592403
39	99	80	0.973
39	100	81	6.8502329446101
39	119	82	0.973
39	120	83	1.992021795143
39	121	84	0.973
39	122	85	4.6554661543539
39	123	86	0.973
39	124	87	7.0419470883331
39	125	88	1.7981475752918
39	126	89	1.3740177609624
39	127	90	1.6653411603923
39	128	91	2.049812733268
39	129	92	2.6449217221606
39	130	93	2.8476118073082
39	131	94	0.973
39	144	95	6.0289675826192
39	145	96	1.4267698017508
39	146	97	0.973
39	147	98	6.8421198347143
39	148	99	1.876320091047
39	149	100	2.5113769823927
39	150	101	0.973
39	151	102	1.9609558938325
39	152	103	0.973
39	153	104	0.973
39	154	105	0.973
39	155	106	2.7061859038203
39	156	107	0.973
39	157	108	0.973
39	158	109	4.3807957763581
39	159	110	4.4714142052579
39	160	111	5.3577861629653
39	161	112	7.8518301295884
39	162	113	7.130493563877
39	186	114	10.508619794132
39	187	115	12.923234716186
39	214	116	12.65799373555
39	215	117	4.1995725762982
39	216	118	4.794615708727
39	217	119	5.0011908072959
39	218	120	0.973
39	219	121	2.7666243808647
39	220	122	2.7749120393162
39	221	123	5.8870816732002
39	222	124	4.6083442995483
39	223	125	0.973
39	224	126	4.3392699729592
39	225	127	2.8804293333016
39	226	128	3.4021725476421
39	227	129	0.973
39	228	130	0.973
39	229	131	0.973
39	230	132	0.973
39	231	133	0.973
39	232	134	0.973
39	233	135	1.1116004468025
39	234	136	1.1101533587318
39	235	137	1.1100948471168
39	236	138	1.1100490293635
39	237	139	1.1100248783787
39	238	140	0.973
39	239	141	2.4932627757527
39	240	142	2.7299355215521
39	241	143	4.0568727021442
39	242	144	5.2064702436138
39	243	145	5.2861976800737
39	244	146	6.1133922048435
39	245	147	6.9289214219669
39	246	148	7.3162003432494
39	247	149	10.716678067424
39	248	150	13.806641638565
39	249	151	12.142212606253
39	250	152	0.973
39	251	153	0.973
39	252	154	0.973
39	253	155	0.973
39	254	156	0.973
39	255	157	3.9668285640433
39	256	158	0.973
39	257	159	1.603778689434
39	258	160	4.4088053373937
39	259	161	7.0706108634845
39	260	162	6.4561471634224
39	261	163	7.348621927795
39	262	164	11.144880891065
39	263	165	1.7657825241082
39	264	166	4.5876004737046
39	265	167	2.4100087693378
39	266	168	1.6454192794126
39	267	169	2.8057455603372
39	268	170	3.4748853393428
39	269	171	1.2008343694594
39	270	172	1.0516446823987
39	271	173	4.72198690376
39	272	174	0.973
39	273	175	2.2545972993907
39	274	176	7.0397851607672
39	275	177	0.973
39	276	178	5.5339702536493
39	277	179	0.93624520015909
39	278	180	4.0190848670647
39	279	181	1.9433549420276
39	280	182	1.2603764162547
39	281	183	0.973
39	282	184	6.8404251272282
39	283	185	10.055360619682
39	284	186	15.435552822905
39	285	187	15.280153959499
39	286	188	13.818567347773
39	287	189	19.398732807669
39	288	190	22.02701541579
39	289	191	2.6014678786835
39	290	192	5.166905623948
39	291	193	9.6285436262924
39	292	194	0.973
39	293	195	12.559251196524
39	294	196	0.973
39	295	197	3.8665740087682
39	296	198	7.1765994794547
39	297	199	6.0030183817187
39	298	200	8.7107819262983

