version 3
run Default-0-20230811-03:34:01-7566
attr configname Default
attr datetime 20230811-03:34:01
attr datetimef 20230811-033401
attr experiment Default
attr inifile omnetpp.ini
attr iterationvars ""
attr iterationvarsd ""
attr iterationvarsf ""
attr measurement ""
attr network Scenario
attr processid 7566
attr repetition 0
attr replication #0
attr resultdir results
attr runnumber 0
attr seedset 0
config image-path ../../images:../../../veins/images
config cmdenv-express-mode true
config cmdenv-autoflush true
config cmdenv-status-frequency 1s
config **.cmdenv-log-level info
config image-path ../../images
config network Scenario
config debug-on-errors true
config print-undisposed true
config sim-time-limit 600s
config **.scalar-recording true
config **.vector-recording true
config *.playgroundSizeX 12500m
config *.playgroundSizeY 7500m
config *.playgroundSizeZ 50m
config *.annotations.draw true
config *.obstacles.obstacles "xmldoc(\"config.xml\", \"//AnalogueModel[@type='SimpleObstacleShadowing']/obstacles\")"
config *.manager.updateInterval 1s
config *.manager.host "\"localhost\""
config *.manager.port 9999
config *.manager.autoShutdown true
config *.manager.launchConfig "xmldoc(\"sumo.launchd.xml\")"
config *.rsu[*].applType "\"RSUApplication\""
config *.rsu[0].appl.policySave "\"fed_p_0\""
config *.rsu[0].appl.valueSave "\"fed_v_0\""
config *.rsu[*].appl.headerLength "80 bit"
config *.rsu[*].appl.sendBeacons false
config *.rsu[*].appl.dataOnSch false
config *.rsu[*].appl.beaconInterval 1s
config *.rsu[*].appl.beaconUserPriority 7
config *.rsu[*].appl.dataUserPriority 5
config *.rsu[*].nic.phy80211p.antennaOffsetZ "0 m"
config *.connectionManager.sendDirect true
config *.connectionManager.maxInterfDist 2600m
config *.connectionManager.drawMaxIntfDist false
config *.**.nic.mac1609_4.useServiceChannel false
config *.**.nic.mac1609_4.txPower 20mW
config *.**.nic.mac1609_4.bitrate 6Mbps
config *.**.nic.phy80211p.minPowerLevel -110dBm
config *.**.nic.phy80211p.useNoiseFloor false
config *.**.nic.phy80211p.noiseFloor -98dBm
config *.**.nic.phy80211p.decider "xmldoc(\"config.xml\")"
config *.**.nic.phy80211p.analogueModels "xmldoc(\"config.xml\")"
config *.**.nic.phy80211p.usePropagationDelay true
config *.**.nic.phy80211p.antenna "xmldoc(\"antenna.xml\", \"/root/Antenna[@id='monopole']\")"
config *.node[*].nic.phy80211p.antennaOffsetY "0 m"
config *.node[*].nic.phy80211p.antennaOffsetZ "1.895 m"
config *.node[*].applType "\"VehicleApplication\""
config *.node[*].appl.headerLength "80 bit"
config *.node[*].appl.sendBeacons false
config *.node[*].appl.dataOnSch false
config *.node[*].appl.beaconInterval 1s
config *.node[*].veinsmobility.x 0
config *.node[*].veinsmobility.y 0
config *.node[*].veinsmobility.z 0
config *.node[*].veinsmobility.setHostSpeed false
config *.node[*0].veinsmobility.accidentCount 1
config *.node[*0].veinsmobility.accidentStart 73s
config *.node[*0].veinsmobility.accidentDuration 50s

par Scenario.obstacles typename "\"org.car2x.veins.modules.obstacle.ObstacleControl\""
par Scenario.obstacles obstacles "<obstacles>...</obstacles> at /home/chandler/src/iov_sim/examples/iov_sim//config.xml:40"
par Scenario.obstacles gridCellSize 250
par Scenario.annotations typename "\"org.car2x.veins.modules.world.annotations.AnnotationManager\""
par Scenario.annotations draw true
par Scenario.annotations annotations "<annotations/> at content:1"
par Scenario.connectionManager typename "\"org.car2x.veins.base.connectionManager.ConnectionManager\""
par Scenario.connectionManager sendDirect true
par Scenario.connectionManager maxInterfDist 2600m
attr unit m
par Scenario.connectionManager drawMaxIntfDist false
par Scenario.world typename "\"org.car2x.veins.base.modules.BaseWorldUtility\""
par Scenario.world playgroundSizeX 12500m
attr unit m
par Scenario.world playgroundSizeY 7500m
attr unit m
par Scenario.world playgroundSizeZ 50m
attr unit m
par Scenario.world useTorus false
par Scenario.world use2D false
par Scenario.manager typename "\"org.car2x.veins.modules.mobility.traci.TraCIScenarioManagerLaunchd\""
par Scenario.manager connectAt 0s
attr unit s
par Scenario.manager firstStepAt -1s
attr unit s
par Scenario.manager updateInterval 1s
attr unit s
par Scenario.manager moduleType "\"org.car2x.veins.nodes.Car\""
par Scenario.manager moduleName "\"node\""
par Scenario.manager moduleDisplayString "\"*='i=veins/node/car;is=vs'\""
par Scenario.manager trafficLightModuleType "\"\""
par Scenario.manager trafficLightModuleName "\"tls\""
par Scenario.manager trafficLightFilter "\"\""
par Scenario.manager trafficLightModuleDisplayString "\"i=misc/node2;is=vs;r=0,,#707070,1\""
par Scenario.manager host "\"localhost\""
par Scenario.manager port 9999
par Scenario.manager seed -1
par Scenario.manager autoShutdown true
par Scenario.manager margin 25
par Scenario.manager roiRoads "\"\""
par Scenario.manager roiRects "\"\""
par Scenario.manager penetrationRate 1
par Scenario.manager ignoreGuiCommands false
par Scenario.manager launchConfig "<launch>...</launch> at /home/chandler/src/iov_sim/examples/iov_sim//sumo.launchd.xml:2"
scalar Scenario.manager roiArea 0
par Scenario.roadsCanvasVisualizer typename "\"org.car2x.veins.visualizer.roads.RoadsCanvasVisualizer\""
par Scenario.roadsCanvasVisualizer enabled true
par Scenario.roadsCanvasVisualizer lineZIndex -1
par Scenario.roadsCanvasVisualizer lineColor "\"firebrick4\""
par Scenario.roadsCanvasVisualizer lineWidth 1
par Scenario.roadsCanvasVisualizer lineWidthZoom false
par Scenario.MySimulationModule typename "\"org.car2x.veins.subprojects.iov_sim.base.python.PythonLifecycle\""
par Scenario.node[0].appl typename "\"org.car2x.veins.subprojects.iov_sim.modules.applications.VehicleApplication\""
par Scenario.node[0].appl headerLength 80bit
attr unit bit
par Scenario.node[0].appl sendBeacons false
par Scenario.node[0].appl beaconLengthBits 256bit
attr unit bit
par Scenario.node[0].appl beaconUserPriority 7
par Scenario.node[0].appl beaconInterval 1s
attr unit s
par Scenario.node[0].appl dataLengthBits 1024bit
attr unit bit
par Scenario.node[0].appl dataOnSch false
par Scenario.node[0].appl dataUserPriority 7
par Scenario.node[0].appl avoidBeaconSynchronization true
par Scenario.node[0].appl sendWSA false
par Scenario.node[0].appl wsaLengthBits 250bit
attr unit bit
par Scenario.node[0].appl wsaInterval 1s
attr unit s
par Scenario.node[0].appl appName "\"Vehicle Application\""
par Scenario.node[0].appl clusterBeaconDelay 5
par Scenario.node[0].appl localStepsPerEpoch 5
par Scenario.node[0].appl neighborTableTimeout 30
par Scenario.node[0].appl clusterElectionTimeout 3
par Scenario.node[0].appl clusterHeadTimeout 3
par Scenario.node[0].appl connectivityThreshold 0.6
par Scenario.node[0].appl electionScoreThreshold 0.6
par Scenario.node[0].appl clusterScoreThreshold 0.6
scalar Scenario.node[0].appl generatedWSMs 9
scalar Scenario.node[0].appl receivedWSMs 0
scalar Scenario.node[0].appl generatedBSMs 0
scalar Scenario.node[0].appl receivedBSMs 0
scalar Scenario.node[0].appl generatedWSAs 0
scalar Scenario.node[0].appl receivedWSAs 0
par Scenario.node[0].nic.phy80211p typename "\"org.car2x.veins.modules.phy.PhyLayer80211p\""
par Scenario.node[0].nic.phy80211p recordStats false
par Scenario.node[0].nic.phy80211p usePropagationDelay true
par Scenario.node[0].nic.phy80211p noiseFloor -98dBm
attr unit dBm
par Scenario.node[0].nic.phy80211p useNoiseFloor false
par Scenario.node[0].nic.phy80211p antenna "<Antenna type=\"SampledAntenna1D\" id=\"monopole\">...</Antenna> at /home/chandler/src/iov_sim/examples/iov_sim//antenna.xml:35"
par Scenario.node[0].nic.phy80211p antennaOffsetX 0m
attr unit m
par Scenario.node[0].nic.phy80211p antennaOffsetY 0m
attr unit m
par Scenario.node[0].nic.phy80211p antennaOffsetZ 1.895m
attr unit m
par Scenario.node[0].nic.phy80211p antennaOffsetYaw 0rad
attr unit rad
par Scenario.node[0].nic.phy80211p analogueModels "<root>...</root> at /home/chandler/src/iov_sim/examples/iov_sim//config.xml:34"
par Scenario.node[0].nic.phy80211p decider "<root>...</root> at /home/chandler/src/iov_sim/examples/iov_sim//config.xml:34"
par Scenario.node[0].nic.phy80211p minPowerLevel -110dBm
attr unit dBm
par Scenario.node[0].nic.phy80211p timeRXToTX 0s
attr unit s
par Scenario.node[0].nic.phy80211p timeRXToSleep 0s
attr unit s
par Scenario.node[0].nic.phy80211p timeTXToRX 0s
attr unit s
par Scenario.node[0].nic.phy80211p timeTXToSleep 0s
attr unit s
par Scenario.node[0].nic.phy80211p timeSleepToRX 0s
attr unit s
par Scenario.node[0].nic.phy80211p timeSleepToTX 0s
attr unit s
par Scenario.node[0].nic.phy80211p initialRadioState 0
par Scenario.node[0].nic.phy80211p radioMinAtt 1
par Scenario.node[0].nic.phy80211p radioMaxAtt 0
par Scenario.node[0].nic.phy80211p nbRadioChannels 1
par Scenario.node[0].nic.phy80211p initialRadioChannel 0
par Scenario.node[0].nic.phy80211p ccaThreshold -65dBm
attr unit dBm
par Scenario.node[0].nic.phy80211p collectCollisionStatistics false
par Scenario.node[0].nic.phy80211p allowTxDuringRx false
scalar Scenario.node[0].nic.phy80211p busyTime 0.00050264374332276
par Scenario.node[0].nic.mac1609_4 typename "\"org.car2x.veins.modules.mac.ieee80211p.Mac1609_4\""
par Scenario.node[0].nic.mac1609_4 notAffectedByHostState false
par Scenario.node[0].nic.mac1609_4 headerLength 0bit
attr unit bit
par Scenario.node[0].nic.mac1609_4 address "\"auto\""
par Scenario.node[0].nic.mac1609_4 useServiceChannel false
par Scenario.node[0].nic.mac1609_4 serviceChannel 1
par Scenario.node[0].nic.mac1609_4 bitrate 6000000bps
attr unit bps
par Scenario.node[0].nic.mac1609_4 syncOffset 0.0003s
attr unit s
par Scenario.node[0].nic.mac1609_4 txPower 20mW
attr unit mW
par Scenario.node[0].nic.mac1609_4 queueSize 0
par Scenario.node[0].nic.mac1609_4 dot11RTSThreshold 12000bit
attr unit bit
par Scenario.node[0].nic.mac1609_4 dot11ShortRetryLimit 7
par Scenario.node[0].nic.mac1609_4 dot11LongRetryLimit 4
par Scenario.node[0].nic.mac1609_4 ackLength 112bit
attr unit bit
par Scenario.node[0].nic.mac1609_4 useAcks false
par Scenario.node[0].nic.mac1609_4 frameErrorRate 0
par Scenario.node[0].nic.mac1609_4 ackErrorRate 0
scalar Scenario.node[0].nic.mac1609_4 ReceivedUnicastPackets 0
scalar Scenario.node[0].nic.mac1609_4 ReceivedBroadcasts 25
scalar Scenario.node[0].nic.mac1609_4 SentPackets 8
scalar Scenario.node[0].nic.mac1609_4 SentAcknowledgements 0
scalar Scenario.node[0].nic.mac1609_4 RetriesExceeded 0
scalar Scenario.node[0].nic.mac1609_4 SNIRLostPackets 1
scalar Scenario.node[0].nic.mac1609_4 RXTXLostPackets 1
scalar Scenario.node[0].nic.mac1609_4 TotalLostPackets 2
scalar Scenario.node[0].nic.mac1609_4 DroppedPacketsInMac 0
scalar Scenario.node[0].nic.mac1609_4 TooLittleTime 0
scalar Scenario.node[0].nic.mac1609_4 TimesIntoBackoff 8
scalar Scenario.node[0].nic.mac1609_4 SlotsBackoff 15
scalar Scenario.node[0].nic.mac1609_4 NumInternalContention 0
scalar Scenario.node[0].nic.mac1609_4 totalBusyTime 0.007664
scalar Scenario.node[0].nic.mac1609_4 retriesExceeded:count 0
attr moduledisplaypath "Scenario.electing CH. src: node[13].nic.mac1609_4"
attr recordingmode count
attr source org_car2x_veins_modules_mac_sigRetriesExceeded
scalar Scenario.node[0].nic.mac1609_4 sentAcks:count 0
attr moduledisplaypath "Scenario.electing CH. src: node[13].nic.mac1609_4"
attr recordingmode count
attr source org_car2x_veins_modules_mac_sigSentAck
scalar Scenario.node[0].nic.mac1609_4 sentPackets:count 8
attr moduledisplaypath "Scenario.electing CH. src: node[13].nic.mac1609_4"
attr recordingmode count
attr source org_car2x_veins_modules_mac_sigSentPacket
scalar Scenario.node[0].nic.mac1609_4 collisions:count 0
attr moduledisplaypath "Scenario.electing CH. src: node[13].nic.mac1609_4"
attr recordingmode count
attr source org_car2x_veins_modules_mac_sigCollision
scalar Scenario.node[0].nic.mac1609_4 channelBusy:timeavg 0.00063863754125093
attr moduledisplaypath "Scenario.electing CH. src: node[13].nic.mac1609_4"
attr recordingmode timeavg
attr source org_car2x_veins_modules_mac_sigChannelBusy
par Scenario.node[0].nic typename "\"org.car2x.veins.modules.nic.Nic80211p\""
par Scenario.node[0].nic connectionManagerName "\"connectionManager\""
par Scenario.node[0].veinsmobility typename "\"org.car2x.veins.modules.mobility.traci.TraCIMobility\""
par Scenario.node[0].veinsmobility notAffectedByHostState true
par Scenario.node[0].veinsmobility x 0
par Scenario.node[0].veinsmobility y 0
par Scenario.node[0].veinsmobility z 0
par Scenario.node[0].veinsmobility xOrientation 1
par Scenario.node[0].veinsmobility yOrientation 0
par Scenario.node[0].veinsmobility zOrientation 0
par Scenario.node[0].veinsmobility hostPositionOffset 0m
attr unit m
par Scenario.node[0].veinsmobility setHostSpeed false
par Scenario.node[0].veinsmobility accidentCount 1
par Scenario.node[0].veinsmobility accidentStart 73s
attr unit s
par Scenario.node[0].veinsmobility accidentDuration 50s
attr unit s
par Scenario.node[0].veinsmobility accidentInterval "uniform(30s, 60s)"
attr unit s
scalar Scenario.node[0].veinsmobility startTime 1
scalar Scenario.node[0].veinsmobility totalTime 12
scalar Scenario.node[0].veinsmobility stopTime 13.000547266589
scalar Scenario.node[0].veinsmobility minSpeed 3.7178716257677
scalar Scenario.node[0].veinsmobility maxSpeed 15.406206221476
scalar Scenario.node[0].veinsmobility totalDistance 119.33464487664
scalar Scenario.node[0].veinsmobility totalCO2Emission 34.473394162426
par Scenario.node[0] typename "\"org.car2x.veins.nodes.Car\""
par Scenario.node[0] applType "\"VehicleApplication\""
par Scenario.node[0] nicType "\"Nic80211p\""
par Scenario.node[0] veinsmobilityType "\"org.car2x.veins.modules.mobility.traci.TraCIMobility\""
par Scenario.node[1].appl typename "\"org.car2x.veins.subprojects.iov_sim.modules.applications.VehicleApplication\""
par Scenario.node[1].appl headerLength 80bit
attr unit bit
par Scenario.node[1].appl sendBeacons false
par Scenario.node[1].appl beaconLengthBits 256bit
attr unit bit
par Scenario.node[1].appl beaconUserPriority 7
par Scenario.node[1].appl beaconInterval 1s
attr unit s
par Scenario.node[1].appl dataLengthBits 1024bit
attr unit bit
par Scenario.node[1].appl dataOnSch false
par Scenario.node[1].appl dataUserPriority 7
par Scenario.node[1].appl avoidBeaconSynchronization true
par Scenario.node[1].appl sendWSA false
par Scenario.node[1].appl wsaLengthBits 250bit
attr unit bit
par Scenario.node[1].appl wsaInterval 1s
attr unit s
par Scenario.node[1].appl appName "\"Vehicle Application\""
par Scenario.node[1].appl clusterBeaconDelay 5
par Scenario.node[1].appl localStepsPerEpoch 5
par Scenario.node[1].appl neighborTableTimeout 30
par Scenario.node[1].appl clusterElectionTimeout 3
par Scenario.node[1].appl clusterHeadTimeout 3
par Scenario.node[1].appl connectivityThreshold 0.6
par Scenario.node[1].appl electionScoreThreshold 0.6
par Scenario.node[1].appl clusterScoreThreshold 0.6
scalar Scenario.node[1].appl generatedWSMs 7
scalar Scenario.node[1].appl receivedWSMs 0
scalar Scenario.node[1].appl generatedBSMs 0
scalar Scenario.node[1].appl receivedBSMs 0
scalar Scenario.node[1].appl generatedWSAs 0
scalar Scenario.node[1].appl receivedWSAs 0
par Scenario.node[1].nic.phy80211p typename "\"org.car2x.veins.modules.phy.PhyLayer80211p\""
par Scenario.node[1].nic.phy80211p recordStats false
par Scenario.node[1].nic.phy80211p usePropagationDelay true
par Scenario.node[1].nic.phy80211p noiseFloor -98dBm
attr unit dBm
par Scenario.node[1].nic.phy80211p useNoiseFloor false
par Scenario.node[1].nic.phy80211p antenna "<Antenna type=\"SampledAntenna1D\" id=\"monopole\">...</Antenna> at /home/chandler/src/iov_sim/examples/iov_sim//antenna.xml:35"
par Scenario.node[1].nic.phy80211p antennaOffsetX 0m
attr unit m
par Scenario.node[1].nic.phy80211p antennaOffsetY 0m
attr unit m
par Scenario.node[1].nic.phy80211p antennaOffsetZ 1.895m
attr unit m
par Scenario.node[1].nic.phy80211p antennaOffsetYaw 0rad
attr unit rad
par Scenario.node[1].nic.phy80211p analogueModels "<root>...</root> at /home/chandler/src/iov_sim/examples/iov_sim//config.xml:34"
par Scenario.node[1].nic.phy80211p decider "<root>...</root> at /home/chandler/src/iov_sim/examples/iov_sim//config.xml:34"
par Scenario.node[1].nic.phy80211p minPowerLevel -110dBm
attr unit dBm
par Scenario.node[1].nic.phy80211p timeRXToTX 0s
attr unit s
par Scenario.node[1].nic.phy80211p timeRXToSleep 0s
attr unit s
par Scenario.node[1].nic.phy80211p timeTXToRX 0s
attr unit s
par Scenario.node[1].nic.phy80211p timeTXToSleep 0s
attr unit s
par Scenario.node[1].nic.phy80211p timeSleepToRX 0s
attr unit s
par Scenario.node[1].nic.phy80211p timeSleepToTX 0s
attr unit s
par Scenario.node[1].nic.phy80211p initialRadioState 0
par Scenario.node[1].nic.phy80211p radioMinAtt 1
par Scenario.node[1].nic.phy80211p radioMaxAtt 0
par Scenario.node[1].nic.phy80211p nbRadioChannels 1
par Scenario.node[1].nic.phy80211p initialRadioChannel 0
par Scenario.node[1].nic.phy80211p ccaThreshold -65dBm
attr unit dBm
par Scenario.node[1].nic.phy80211p collectCollisionStatistics false
par Scenario.node[1].nic.phy80211p allowTxDuringRx false
scalar Scenario.node[1].nic.phy80211p busyTime 0.00023198845822434
par Scenario.node[1].nic.mac1609_4 typename "\"org.car2x.veins.modules.mac.ieee80211p.Mac1609_4\""
par Scenario.node[1].nic.mac1609_4 notAffectedByHostState false
par Scenario.node[1].nic.mac1609_4 headerLength 0bit
attr unit bit
par Scenario.node[1].nic.mac1609_4 address "\"auto\""
par Scenario.node[1].nic.mac1609_4 useServiceChannel false
par Scenario.node[1].nic.mac1609_4 serviceChannel 1
par Scenario.node[1].nic.mac1609_4 bitrate 6000000bps
attr unit bps
par Scenario.node[1].nic.mac1609_4 syncOffset 0.0003s
attr unit s
par Scenario.node[1].nic.mac1609_4 txPower 20mW
attr unit mW
par Scenario.node[1].nic.mac1609_4 queueSize 0
par Scenario.node[1].nic.mac1609_4 dot11RTSThreshold 12000bit
attr unit bit
par Scenario.node[1].nic.mac1609_4 dot11ShortRetryLimit 7
par Scenario.node[1].nic.mac1609_4 dot11LongRetryLimit 4
par Scenario.node[1].nic.mac1609_4 ackLength 112bit
attr unit bit
par Scenario.node[1].nic.mac1609_4 useAcks false
par Scenario.node[1].nic.mac1609_4 frameErrorRate 0
par Scenario.node[1].nic.mac1609_4 ackErrorRate 0
scalar Scenario.node[1].nic.mac1609_4 ReceivedUnicastPackets 0
scalar Scenario.node[1].nic.mac1609_4 ReceivedBroadcasts 8
scalar Scenario.node[1].nic.mac1609_4 SentPackets 7
scalar Scenario.node[1].nic.mac1609_4 SentAcknowledgements 0
scalar Scenario.node[1].nic.mac1609_4 RetriesExceeded 0
scalar Scenario.node[1].nic.mac1609_4 SNIRLostPackets 3
scalar Scenario.node[1].nic.mac1609_4 RXTXLostPackets 0
scalar Scenario.node[1].nic.mac1609_4 TotalLostPackets 3
scalar Scenario.node[1].nic.mac1609_4 DroppedPacketsInMac 0
scalar Scenario.node[1].nic.mac1609_4 TooLittleTime 0
scalar Scenario.node[1].nic.mac1609_4 TimesIntoBackoff 7
scalar Scenario.node[1].nic.mac1609_4 SlotsBackoff 11
scalar Scenario.node[1].nic.mac1609_4 NumInternalContention 0
scalar Scenario.node[1].nic.mac1609_4 totalBusyTime 0.003487
scalar Scenario.node[1].nic.mac1609_4 retriesExceeded:count 0
attr moduledisplaypath "Scenario.node[1]'s CH.nic.mac1609_4"
attr recordingmode count
attr source org_car2x_veins_modules_mac_sigRetriesExceeded
scalar Scenario.node[1].nic.mac1609_4 sentAcks:count 0
attr moduledisplaypath "Scenario.node[1]'s CH.nic.mac1609_4"
attr recordingmode count
attr source org_car2x_veins_modules_mac_sigSentAck
scalar Scenario.node[1].nic.mac1609_4 sentPackets:count 7
attr moduledisplaypath "Scenario.node[1]'s CH.nic.mac1609_4"
attr recordingmode count
attr source org_car2x_veins_modules_mac_sigSentPacket
scalar Scenario.node[1].nic.mac1609_4 collisions:count 0
attr moduledisplaypath "Scenario.node[1]'s CH.nic.mac1609_4"
attr recordingmode count
attr source org_car2x_veins_modules_mac_sigCollision
scalar Scenario.node[1].nic.mac1609_4 channelBusy:timeavg 0.00031698422955654
attr moduledisplaypath "Scenario.node[1]'s CH.nic.mac1609_4"
attr recordingmode timeavg
attr source org_car2x_veins_modules_mac_sigChannelBusy
par Scenario.node[1].nic typename "\"org.car2x.veins.modules.nic.Nic80211p\""
par Scenario.node[1].nic connectionManagerName "\"connectionManager\""
par Scenario.node[1].veinsmobility typename "\"org.car2x.veins.modules.mobility.traci.TraCIMobility\""
par Scenario.node[1].veinsmobility notAffectedByHostState true
par Scenario.node[1].veinsmobility x 0
par Scenario.node[1].veinsmobility y 0
par Scenario.node[1].veinsmobility z 0
par Scenario.node[1].veinsmobility xOrientation 1
par Scenario.node[1].veinsmobility yOrientation 0
par Scenario.node[1].veinsmobility zOrientation 0
par Scenario.node[1].veinsmobility hostPositionOffset 0m
attr unit m
par Scenario.node[1].veinsmobility setHostSpeed false
par Scenario.node[1].veinsmobility accidentCount 0
par Scenario.node[1].veinsmobility accidentStart 34.3006s
attr unit s
par Scenario.node[1].veinsmobility accidentDuration "uniform(30s, 60s)"
attr unit s
par Scenario.node[1].veinsmobility accidentInterval "uniform(30s, 60s)"
attr unit s
scalar Scenario.node[1].veinsmobility startTime 2
scalar Scenario.node[1].veinsmobility totalTime 11
scalar Scenario.node[1].veinsmobility stopTime 13.000547266589
scalar Scenario.node[1].veinsmobility minSpeed 1.529956558696
scalar Scenario.node[1].veinsmobility maxSpeed 14.364200878603
scalar Scenario.node[1].veinsmobility totalDistance 97.845930675413
scalar Scenario.node[1].veinsmobility totalCO2Emission 43.661240250254
par Scenario.node[1] typename "\"org.car2x.veins.nodes.Car\""
par Scenario.node[1] applType "\"VehicleApplication\""
par Scenario.node[1] nicType "\"Nic80211p\""
par Scenario.node[1] veinsmobilityType "\"org.car2x.veins.modules.mobility.traci.TraCIMobility\""
par Scenario.node[2].appl typename "\"org.car2x.veins.subprojects.iov_sim.modules.applications.VehicleApplication\""
par Scenario.node[2].appl headerLength 80bit
attr unit bit
par Scenario.node[2].appl sendBeacons false
par Scenario.node[2].appl beaconLengthBits 256bit
attr unit bit
par Scenario.node[2].appl beaconUserPriority 7
par Scenario.node[2].appl beaconInterval 1s
attr unit s
par Scenario.node[2].appl dataLengthBits 1024bit
attr unit bit
par Scenario.node[2].appl dataOnSch false
par Scenario.node[2].appl dataUserPriority 7
par Scenario.node[2].appl avoidBeaconSynchronization true
par Scenario.node[2].appl sendWSA false
par Scenario.node[2].appl wsaLengthBits 250bit
attr unit bit
par Scenario.node[2].appl wsaInterval 1s
attr unit s
par Scenario.node[2].appl appName "\"Vehicle Application\""
par Scenario.node[2].appl clusterBeaconDelay 5
par Scenario.node[2].appl localStepsPerEpoch 5
par Scenario.node[2].appl neighborTableTimeout 30
par Scenario.node[2].appl clusterElectionTimeout 3
par Scenario.node[2].appl clusterHeadTimeout 3
par Scenario.node[2].appl connectivityThreshold 0.6
par Scenario.node[2].appl electionScoreThreshold 0.6
par Scenario.node[2].appl clusterScoreThreshold 0.6
scalar Scenario.node[2].appl generatedWSMs 8
scalar Scenario.node[2].appl receivedWSMs 0
scalar Scenario.node[2].appl generatedBSMs 0
scalar Scenario.node[2].appl receivedBSMs 0
scalar Scenario.node[2].appl generatedWSAs 0
scalar Scenario.node[2].appl receivedWSAs 0
par Scenario.node[2].nic.phy80211p typename "\"org.car2x.veins.modules.phy.PhyLayer80211p\""
par Scenario.node[2].nic.phy80211p recordStats false
par Scenario.node[2].nic.phy80211p usePropagationDelay true
par Scenario.node[2].nic.phy80211p noiseFloor -98dBm
attr unit dBm
par Scenario.node[2].nic.phy80211p useNoiseFloor false
par Scenario.node[2].nic.phy80211p antenna "<Antenna type=\"SampledAntenna1D\" id=\"monopole\">...</Antenna> at /home/chandler/src/iov_sim/examples/iov_sim//antenna.xml:35"
par Scenario.node[2].nic.phy80211p antennaOffsetX 0m
attr unit m
par Scenario.node[2].nic.phy80211p antennaOffsetY 0m
attr unit m
par Scenario.node[2].nic.phy80211p antennaOffsetZ 1.895m
attr unit m
par Scenario.node[2].nic.phy80211p antennaOffsetYaw 0rad
attr unit rad
par Scenario.node[2].nic.phy80211p analogueModels "<root>...</root> at /home/chandler/src/iov_sim/examples/iov_sim//config.xml:34"
par Scenario.node[2].nic.phy80211p decider "<root>...</root> at /home/chandler/src/iov_sim/examples/iov_sim//config.xml:34"
par Scenario.node[2].nic.phy80211p minPowerLevel -110dBm
attr unit dBm
par Scenario.node[2].nic.phy80211p timeRXToTX 0s
attr unit s
par Scenario.node[2].nic.phy80211p timeRXToSleep 0s
attr unit s
par Scenario.node[2].nic.phy80211p timeTXToRX 0s
attr unit s
par Scenario.node[2].nic.phy80211p timeTXToSleep 0s
attr unit s
par Scenario.node[2].nic.phy80211p timeSleepToRX 0s
attr unit s
par Scenario.node[2].nic.phy80211p timeSleepToTX 0s
attr unit s
par Scenario.node[2].nic.phy80211p initialRadioState 0
par Scenario.node[2].nic.phy80211p radioMinAtt 1
par Scenario.node[2].nic.phy80211p radioMaxAtt 0
par Scenario.node[2].nic.phy80211p nbRadioChannels 1
par Scenario.node[2].nic.phy80211p initialRadioChannel 0
par Scenario.node[2].nic.phy80211p ccaThreshold -65dBm
attr unit dBm
par Scenario.node[2].nic.phy80211p collectCollisionStatistics false
par Scenario.node[2].nic.phy80211p allowTxDuringRx false
scalar Scenario.node[2].nic.phy80211p busyTime 0
par Scenario.node[2].nic.mac1609_4 typename "\"org.car2x.veins.modules.mac.ieee80211p.Mac1609_4\""
par Scenario.node[2].nic.mac1609_4 notAffectedByHostState false
par Scenario.node[2].nic.mac1609_4 headerLength 0bit
attr unit bit
par Scenario.node[2].nic.mac1609_4 address "\"auto\""
par Scenario.node[2].nic.mac1609_4 useServiceChannel false
par Scenario.node[2].nic.mac1609_4 serviceChannel 1
par Scenario.node[2].nic.mac1609_4 bitrate 6000000bps
attr unit bps
par Scenario.node[2].nic.mac1609_4 syncOffset 0.0003s
attr unit s
par Scenario.node[2].nic.mac1609_4 txPower 20mW
attr unit mW
par Scenario.node[2].nic.mac1609_4 queueSize 0
par Scenario.node[2].nic.mac1609_4 dot11RTSThreshold 12000bit
attr unit bit
par Scenario.node[2].nic.mac1609_4 dot11ShortRetryLimit 7
par Scenario.node[2].nic.mac1609_4 dot11LongRetryLimit 4
par Scenario.node[2].nic.mac1609_4 ackLength 112bit
attr unit bit
par Scenario.node[2].nic.mac1609_4 useAcks false
par Scenario.node[2].nic.mac1609_4 frameErrorRate 0
par Scenario.node[2].nic.mac1609_4 ackErrorRate 0
scalar Scenario.node[2].nic.mac1609_4 ReceivedUnicastPackets 0
scalar Scenario.node[2].nic.mac1609_4 ReceivedBroadcasts 0
scalar Scenario.node[2].nic.mac1609_4 SentPackets 8
scalar Scenario.node[2].nic.mac1609_4 SentAcknowledgements 0
scalar Scenario.node[2].nic.mac1609_4 RetriesExceeded 0
scalar Scenario.node[2].nic.mac1609_4 SNIRLostPackets 0
scalar Scenario.node[2].nic.mac1609_4 RXTXLostPackets 0
scalar Scenario.node[2].nic.mac1609_4 TotalLostPackets 0
scalar Scenario.node[2].nic.mac1609_4 DroppedPacketsInMac 0
scalar Scenario.node[2].nic.mac1609_4 TooLittleTime 0
scalar Scenario.node[2].nic.mac1609_4 TimesIntoBackoff 8
scalar Scenario.node[2].nic.mac1609_4 SlotsBackoff 14
scalar Scenario.node[2].nic.mac1609_4 NumInternalContention 0
scalar Scenario.node[2].nic.mac1609_4 totalBusyTime 0.001864
scalar Scenario.node[2].nic.mac1609_4 retriesExceeded:count 0
attr recordingmode count
attr source org_car2x_veins_modules_mac_sigRetriesExceeded
scalar Scenario.node[2].nic.mac1609_4 sentAcks:count 0
attr recordingmode count
attr source org_car2x_veins_modules_mac_sigSentAck
scalar Scenario.node[2].nic.mac1609_4 sentPackets:count 8
attr recordingmode count
attr source org_car2x_veins_modules_mac_sigSentPacket
scalar Scenario.node[2].nic.mac1609_4 collisions:count 0
attr recordingmode count
attr source org_car2x_veins_modules_mac_sigCollision
scalar Scenario.node[2].nic.mac1609_4 channelBusy:timeavg 0.00016944611525477
attr recordingmode timeavg
attr source org_car2x_veins_modules_mac_sigChannelBusy
par Scenario.node[2].nic typename "\"org.car2x.veins.modules.nic.Nic80211p\""
par Scenario.node[2].nic connectionManagerName "\"connectionManager\""
par Scenario.node[2].veinsmobility typename "\"org.car2x.veins.modules.mobility.traci.TraCIMobility\""
par Scenario.node[2].veinsmobility notAffectedByHostState true
par Scenario.node[2].veinsmobility x 0
par Scenario.node[2].veinsmobility y 0
par Scenario.node[2].veinsmobility z 0
par Scenario.node[2].veinsmobility xOrientation 1
par Scenario.node[2].veinsmobility yOrientation 0
par Scenario.node[2].veinsmobility zOrientation 0
par Scenario.node[2].veinsmobility hostPositionOffset 0m
attr unit m
par Scenario.node[2].veinsmobility setHostSpeed false
par Scenario.node[2].veinsmobility accidentCount 0
par Scenario.node[2].veinsmobility accidentStart 33.1772s
attr unit s
par Scenario.node[2].veinsmobility accidentDuration "uniform(30s, 60s)"
attr unit s
par Scenario.node[2].veinsmobility accidentInterval "uniform(30s, 60s)"
attr unit s
scalar Scenario.node[2].veinsmobility startTime 2
scalar Scenario.node[2].veinsmobility totalTime 11
scalar Scenario.node[2].veinsmobility stopTime 13.000547266589
scalar Scenario.node[2].veinsmobility minSpeed 1.9318736586953
scalar Scenario.node[2].veinsmobility maxSpeed 14.112993357117
scalar Scenario.node[2].veinsmobility totalDistance 102.42758691668
scalar Scenario.node[2].veinsmobility totalCO2Emission 42.412098686612
par Scenario.node[2] typename "\"org.car2x.veins.nodes.Car\""
par Scenario.node[2] applType "\"VehicleApplication\""
par Scenario.node[2] nicType "\"Nic80211p\""
par Scenario.node[2] veinsmobilityType "\"org.car2x.veins.modules.mobility.traci.TraCIMobility\""
par Scenario.node[3].appl typename "\"org.car2x.veins.subprojects.iov_sim.modules.applications.VehicleApplication\""
par Scenario.node[3].appl headerLength 80bit
attr unit bit
par Scenario.node[3].appl sendBeacons false
par Scenario.node[3].appl beaconLengthBits 256bit
attr unit bit
par Scenario.node[3].appl beaconUserPriority 7
par Scenario.node[3].appl beaconInterval 1s
attr unit s
par Scenario.node[3].appl dataLengthBits 1024bit
attr unit bit
par Scenario.node[3].appl dataOnSch false
par Scenario.node[3].appl dataUserPriority 7
par Scenario.node[3].appl avoidBeaconSynchronization true
par Scenario.node[3].appl sendWSA false
par Scenario.node[3].appl wsaLengthBits 250bit
attr unit bit
par Scenario.node[3].appl wsaInterval 1s
attr unit s
par Scenario.node[3].appl appName "\"Vehicle Application\""
par Scenario.node[3].appl clusterBeaconDelay 5
par Scenario.node[3].appl localStepsPerEpoch 5
par Scenario.node[3].appl neighborTableTimeout 30
par Scenario.node[3].appl clusterElectionTimeout 3
par Scenario.node[3].appl clusterHeadTimeout 3
par Scenario.node[3].appl connectivityThreshold 0.6
par Scenario.node[3].appl electionScoreThreshold 0.6
par Scenario.node[3].appl clusterScoreThreshold 0.6
scalar Scenario.node[3].appl generatedWSMs 7
scalar Scenario.node[3].appl receivedWSMs 0
scalar Scenario.node[3].appl generatedBSMs 0
scalar Scenario.node[3].appl receivedBSMs 0
scalar Scenario.node[3].appl generatedWSAs 0
scalar Scenario.node[3].appl receivedWSAs 0
par Scenario.node[3].nic.phy80211p typename "\"org.car2x.veins.modules.phy.PhyLayer80211p\""
par Scenario.node[3].nic.phy80211p recordStats false
par Scenario.node[3].nic.phy80211p usePropagationDelay true
par Scenario.node[3].nic.phy80211p noiseFloor -98dBm
attr unit dBm
par Scenario.node[3].nic.phy80211p useNoiseFloor false
par Scenario.node[3].nic.phy80211p antenna "<Antenna type=\"SampledAntenna1D\" id=\"monopole\">...</Antenna> at /home/chandler/src/iov_sim/examples/iov_sim//antenna.xml:35"
par Scenario.node[3].nic.phy80211p antennaOffsetX 0m
attr unit m
par Scenario.node[3].nic.phy80211p antennaOffsetY 0m
attr unit m
par Scenario.node[3].nic.phy80211p antennaOffsetZ 1.895m
attr unit m
par Scenario.node[3].nic.phy80211p antennaOffsetYaw 0rad
attr unit rad
par Scenario.node[3].nic.phy80211p analogueModels "<root>...</root> at /home/chandler/src/iov_sim/examples/iov_sim//config.xml:34"
par Scenario.node[3].nic.phy80211p decider "<root>...</root> at /home/chandler/src/iov_sim/examples/iov_sim//config.xml:34"
par Scenario.node[3].nic.phy80211p minPowerLevel -110dBm
attr unit dBm
par Scenario.node[3].nic.phy80211p timeRXToTX 0s
attr unit s
par Scenario.node[3].nic.phy80211p timeRXToSleep 0s
attr unit s
par Scenario.node[3].nic.phy80211p timeTXToRX 0s
attr unit s
par Scenario.node[3].nic.phy80211p timeTXToSleep 0s
attr unit s
par Scenario.node[3].nic.phy80211p timeSleepToRX 0s
attr unit s
par Scenario.node[3].nic.phy80211p timeSleepToTX 0s
attr unit s
par Scenario.node[3].nic.phy80211p initialRadioState 0
par Scenario.node[3].nic.phy80211p radioMinAtt 1
par Scenario.node[3].nic.phy80211p radioMaxAtt 0
par Scenario.node[3].nic.phy80211p nbRadioChannels 1
par Scenario.node[3].nic.phy80211p initialRadioChannel 0
par Scenario.node[3].nic.phy80211p ccaThreshold -65dBm
attr unit dBm
par Scenario.node[3].nic.phy80211p collectCollisionStatistics false
par Scenario.node[3].nic.phy80211p allowTxDuringRx false
scalar Scenario.node[3].nic.phy80211p busyTime 0.00064956445150783
par Scenario.node[3].nic.mac1609_4 typename "\"org.car2x.veins.modules.mac.ieee80211p.Mac1609_4\""
par Scenario.node[3].nic.mac1609_4 notAffectedByHostState false
par Scenario.node[3].nic.mac1609_4 headerLength 0bit
attr unit bit
par Scenario.node[3].nic.mac1609_4 address "\"auto\""
par Scenario.node[3].nic.mac1609_4 useServiceChannel false
par Scenario.node[3].nic.mac1609_4 serviceChannel 1
par Scenario.node[3].nic.mac1609_4 bitrate 6000000bps
attr unit bps
par Scenario.node[3].nic.mac1609_4 syncOffset 0.0003s
attr unit s
par Scenario.node[3].nic.mac1609_4 txPower 20mW
attr unit mW
par Scenario.node[3].nic.mac1609_4 queueSize 0
par Scenario.node[3].nic.mac1609_4 dot11RTSThreshold 12000bit
attr unit bit
par Scenario.node[3].nic.mac1609_4 dot11ShortRetryLimit 7
par Scenario.node[3].nic.mac1609_4 dot11LongRetryLimit 4
par Scenario.node[3].nic.mac1609_4 ackLength 112bit
attr unit bit
par Scenario.node[3].nic.mac1609_4 useAcks false
par Scenario.node[3].nic.mac1609_4 frameErrorRate 0
par Scenario.node[3].nic.mac1609_4 ackErrorRate 0
scalar Scenario.node[3].nic.mac1609_4 ReceivedUnicastPackets 0
scalar Scenario.node[3].nic.mac1609_4 ReceivedBroadcasts 26
scalar Scenario.node[3].nic.mac1609_4 SentPackets 7
scalar Scenario.node[3].nic.mac1609_4 SentAcknowledgements 0
scalar Scenario.node[3].nic.mac1609_4 RetriesExceeded 0
scalar Scenario.node[3].nic.mac1609_4 SNIRLostPackets 2
scalar Scenario.node[3].nic.mac1609_4 RXTXLostPackets 1
scalar Scenario.node[3].nic.mac1609_4 TotalLostPackets 3
scalar Scenario.node[3].nic.mac1609_4 DroppedPacketsInMac 0
scalar Scenario.node[3].nic.mac1609_4 TooLittleTime 0
scalar Scenario.node[3].nic.mac1609_4 TimesIntoBackoff 7
scalar Scenario.node[3].nic.mac1609_4 SlotsBackoff 10
scalar Scenario.node[3].nic.mac1609_4 NumInternalContention 0
scalar Scenario.node[3].nic.mac1609_4 totalBusyTime 0.007663
scalar Scenario.node[3].nic.mac1609_4 retriesExceeded:count 0
attr moduledisplaypath "Scenario.node[3]'s CH.nic.mac1609_4"
attr recordingmode count
attr source org_car2x_veins_modules_mac_sigRetriesExceeded
scalar Scenario.node[3].nic.mac1609_4 sentAcks:count 0
attr moduledisplaypath "Scenario.node[3]'s CH.nic.mac1609_4"
attr recordingmode count
attr source org_car2x_veins_modules_mac_sigSentAck
scalar Scenario.node[3].nic.mac1609_4 sentPackets:count 7
attr moduledisplaypath "Scenario.node[3]'s CH.nic.mac1609_4"
attr recordingmode count
attr source org_car2x_veins_modules_mac_sigSentPacket
scalar Scenario.node[3].nic.mac1609_4 collisions:count 0
attr moduledisplaypath "Scenario.node[3]'s CH.nic.mac1609_4"
attr recordingmode count
attr source org_car2x_veins_modules_mac_sigCollision
scalar Scenario.node[3].nic.mac1609_4 channelBusy:timeavg 0.00076625806525623
attr moduledisplaypath "Scenario.node[3]'s CH.nic.mac1609_4"
attr recordingmode timeavg
attr source org_car2x_veins_modules_mac_sigChannelBusy
par Scenario.node[3].nic typename "\"org.car2x.veins.modules.nic.Nic80211p\""
par Scenario.node[3].nic connectionManagerName "\"connectionManager\""
par Scenario.node[3].veinsmobility typename "\"org.car2x.veins.modules.mobility.traci.TraCIMobility\""
par Scenario.node[3].veinsmobility notAffectedByHostState true
par Scenario.node[3].veinsmobility x 0
par Scenario.node[3].veinsmobility y 0
par Scenario.node[3].veinsmobility z 0
par Scenario.node[3].veinsmobility xOrientation 1
par Scenario.node[3].veinsmobility yOrientation 0
par Scenario.node[3].veinsmobility zOrientation 0
par Scenario.node[3].veinsmobility hostPositionOffset 0m
attr unit m
par Scenario.node[3].veinsmobility setHostSpeed false
par Scenario.node[3].veinsmobility accidentCount 0
par Scenario.node[3].veinsmobility accidentStart 43.4985s
attr unit s
par Scenario.node[3].veinsmobility accidentDuration "uniform(30s, 60s)"
attr unit s
par Scenario.node[3].veinsmobility accidentInterval "uniform(30s, 60s)"
attr unit s
scalar Scenario.node[3].veinsmobility startTime 3
scalar Scenario.node[3].veinsmobility totalTime 10
scalar Scenario.node[3].veinsmobility stopTime 13.000547266589
scalar Scenario.node[3].veinsmobility minSpeed 2.5865135943983
scalar Scenario.node[3].veinsmobility maxSpeed 14.08519838587
scalar Scenario.node[3].veinsmobility totalDistance 101.91858310419
scalar Scenario.node[3].veinsmobility totalCO2Emission 42.109001095504
par Scenario.node[3] typename "\"org.car2x.veins.nodes.Car\""
par Scenario.node[3] applType "\"VehicleApplication\""
par Scenario.node[3] nicType "\"Nic80211p\""
par Scenario.node[3] veinsmobilityType "\"org.car2x.veins.modules.mobility.traci.TraCIMobility\""
par Scenario.node[4].appl typename "\"org.car2x.veins.subprojects.iov_sim.modules.applications.VehicleApplication\""
par Scenario.node[4].appl headerLength 80bit
attr unit bit
par Scenario.node[4].appl sendBeacons false
par Scenario.node[4].appl beaconLengthBits 256bit
attr unit bit
par Scenario.node[4].appl beaconUserPriority 7
par Scenario.node[4].appl beaconInterval 1s
attr unit s
par Scenario.node[4].appl dataLengthBits 1024bit
attr unit bit
par Scenario.node[4].appl dataOnSch false
par Scenario.node[4].appl dataUserPriority 7
par Scenario.node[4].appl avoidBeaconSynchronization true
par Scenario.node[4].appl sendWSA false
par Scenario.node[4].appl wsaLengthBits 250bit
attr unit bit
par Scenario.node[4].appl wsaInterval 1s
attr unit s
par Scenario.node[4].appl appName "\"Vehicle Application\""
par Scenario.node[4].appl clusterBeaconDelay 5
par Scenario.node[4].appl localStepsPerEpoch 5
par Scenario.node[4].appl neighborTableTimeout 30
par Scenario.node[4].appl clusterElectionTimeout 3
par Scenario.node[4].appl clusterHeadTimeout 3
par Scenario.node[4].appl connectivityThreshold 0.6
par Scenario.node[4].appl electionScoreThreshold 0.6
par Scenario.node[4].appl clusterScoreThreshold 0.6
scalar Scenario.node[4].appl generatedWSMs 7
scalar Scenario.node[4].appl receivedWSMs 0
scalar Scenario.node[4].appl generatedBSMs 0
scalar Scenario.node[4].appl receivedBSMs 0
scalar Scenario.node[4].appl generatedWSAs 0
scalar Scenario.node[4].appl receivedWSAs 0
par Scenario.node[4].nic.phy80211p typename "\"org.car2x.veins.modules.phy.PhyLayer80211p\""
par Scenario.node[4].nic.phy80211p recordStats false
par Scenario.node[4].nic.phy80211p usePropagationDelay true
par Scenario.node[4].nic.phy80211p noiseFloor -98dBm
attr unit dBm
par Scenario.node[4].nic.phy80211p useNoiseFloor false
par Scenario.node[4].nic.phy80211p antenna "<Antenna type=\"SampledAntenna1D\" id=\"monopole\">...</Antenna> at /home/chandler/src/iov_sim/examples/iov_sim//antenna.xml:35"
par Scenario.node[4].nic.phy80211p antennaOffsetX 0m
attr unit m
par Scenario.node[4].nic.phy80211p antennaOffsetY 0m
attr unit m
par Scenario.node[4].nic.phy80211p antennaOffsetZ 1.895m
attr unit m
par Scenario.node[4].nic.phy80211p antennaOffsetYaw 0rad
attr unit rad
par Scenario.node[4].nic.phy80211p analogueModels "<root>...</root> at /home/chandler/src/iov_sim/examples/iov_sim//config.xml:34"
par Scenario.node[4].nic.phy80211p decider "<root>...</root> at /home/chandler/src/iov_sim/examples/iov_sim//config.xml:34"
par Scenario.node[4].nic.phy80211p minPowerLevel -110dBm
attr unit dBm
par Scenario.node[4].nic.phy80211p timeRXToTX 0s
attr unit s
par Scenario.node[4].nic.phy80211p timeRXToSleep 0s
attr unit s
par Scenario.node[4].nic.phy80211p timeTXToRX 0s
attr unit s
par Scenario.node[4].nic.phy80211p timeTXToSleep 0s
attr unit s
par Scenario.node[4].nic.phy80211p timeSleepToRX 0s
attr unit s
par Scenario.node[4].nic.phy80211p timeSleepToTX 0s
attr unit s
par Scenario.node[4].nic.phy80211p initialRadioState 0
par Scenario.node[4].nic.phy80211p radioMinAtt 1
par Scenario.node[4].nic.phy80211p radioMaxAtt 0
par Scenario.node[4].nic.phy80211p nbRadioChannels 1
par Scenario.node[4].nic.phy80211p initialRadioChannel 0
par Scenario.node[4].nic.phy80211p ccaThreshold -65dBm
attr unit dBm
par Scenario.node[4].nic.phy80211p collectCollisionStatistics false
par Scenario.node[4].nic.phy80211p allowTxDuringRx false
scalar Scenario.node[4].nic.phy80211p busyTime 0
par Scenario.node[4].nic.mac1609_4 typename "\"org.car2x.veins.modules.mac.ieee80211p.Mac1609_4\""
par Scenario.node[4].nic.mac1609_4 notAffectedByHostState false
par Scenario.node[4].nic.mac1609_4 headerLength 0bit
attr unit bit
par Scenario.node[4].nic.mac1609_4 address "\"auto\""
par Scenario.node[4].nic.mac1609_4 useServiceChannel false
par Scenario.node[4].nic.mac1609_4 serviceChannel 1
par Scenario.node[4].nic.mac1609_4 bitrate 6000000bps
attr unit bps
par Scenario.node[4].nic.mac1609_4 syncOffset 0.0003s
attr unit s
par Scenario.node[4].nic.mac1609_4 txPower 20mW
attr unit mW
par Scenario.node[4].nic.mac1609_4 queueSize 0
par Scenario.node[4].nic.mac1609_4 dot11RTSThreshold 12000bit
attr unit bit
par Scenario.node[4].nic.mac1609_4 dot11ShortRetryLimit 7
par Scenario.node[4].nic.mac1609_4 dot11LongRetryLimit 4
par Scenario.node[4].nic.mac1609_4 ackLength 112bit
attr unit bit
par Scenario.node[4].nic.mac1609_4 useAcks false
par Scenario.node[4].nic.mac1609_4 frameErrorRate 0
par Scenario.node[4].nic.mac1609_4 ackErrorRate 0
scalar Scenario.node[4].nic.mac1609_4 ReceivedUnicastPackets 0
scalar Scenario.node[4].nic.mac1609_4 ReceivedBroadcasts 0
scalar Scenario.node[4].nic.mac1609_4 SentPackets 7
scalar Scenario.node[4].nic.mac1609_4 SentAcknowledgements 0
scalar Scenario.node[4].nic.mac1609_4 RetriesExceeded 0
scalar Scenario.node[4].nic.mac1609_4 SNIRLostPackets 0
scalar Scenario.node[4].nic.mac1609_4 RXTXLostPackets 0
scalar Scenario.node[4].nic.mac1609_4 TotalLostPackets 0
scalar Scenario.node[4].nic.mac1609_4 DroppedPacketsInMac 0
scalar Scenario.node[4].nic.mac1609_4 TooLittleTime 0
scalar Scenario.node[4].nic.mac1609_4 TimesIntoBackoff 7
scalar Scenario.node[4].nic.mac1609_4 SlotsBackoff 12
scalar Scenario.node[4].nic.mac1609_4 NumInternalContention 0
scalar Scenario.node[4].nic.mac1609_4 totalBusyTime 0.001631
scalar Scenario.node[4].nic.mac1609_4 retriesExceeded:count 0
attr recordingmode count
attr source org_car2x_veins_modules_mac_sigRetriesExceeded
scalar Scenario.node[4].nic.mac1609_4 sentAcks:count 0
attr recordingmode count
attr source org_car2x_veins_modules_mac_sigSentAck
scalar Scenario.node[4].nic.mac1609_4 sentPackets:count 7
attr recordingmode count
attr source org_car2x_veins_modules_mac_sigSentPacket
scalar Scenario.node[4].nic.mac1609_4 collisions:count 0
attr recordingmode count
attr source org_car2x_veins_modules_mac_sigCollision
scalar Scenario.node[4].nic.mac1609_4 channelBusy:timeavg 0.00016309107457039
attr recordingmode timeavg
attr source org_car2x_veins_modules_mac_sigChannelBusy
par Scenario.node[4].nic typename "\"org.car2x.veins.modules.nic.Nic80211p\""
par Scenario.node[4].nic connectionManagerName "\"connectionManager\""
par Scenario.node[4].veinsmobility typename "\"org.car2x.veins.modules.mobility.traci.TraCIMobility\""
par Scenario.node[4].veinsmobility notAffectedByHostState true
par Scenario.node[4].veinsmobility x 0
par Scenario.node[4].veinsmobility y 0
par Scenario.node[4].veinsmobility z 0
par Scenario.node[4].veinsmobility xOrientation 1
par Scenario.node[4].veinsmobility yOrientation 0
par Scenario.node[4].veinsmobility zOrientation 0
par Scenario.node[4].veinsmobility hostPositionOffset 0m
attr unit m
par Scenario.node[4].veinsmobility setHostSpeed false
par Scenario.node[4].veinsmobility accidentCount 0
par Scenario.node[4].veinsmobility accidentStart 50.9289s
attr unit s
par Scenario.node[4].veinsmobility accidentDuration "uniform(30s, 60s)"
attr unit s
par Scenario.node[4].veinsmobility accidentInterval "uniform(30s, 60s)"
attr unit s
scalar Scenario.node[4].veinsmobility startTime 3
scalar Scenario.node[4].veinsmobility totalTime 10
scalar Scenario.node[4].veinsmobility stopTime 13.000547266589
scalar Scenario.node[4].veinsmobility minSpeed 1.4645417755703
scalar Scenario.node[4].veinsmobility maxSpeed 11.690339570112
scalar Scenario.node[4].veinsmobility totalDistance 83.212477307958
scalar Scenario.node[4].veinsmobility totalCO2Emission 31.87792339104
par Scenario.node[4] typename "\"org.car2x.veins.nodes.Car\""
par Scenario.node[4] applType "\"VehicleApplication\""
par Scenario.node[4] nicType "\"Nic80211p\""
par Scenario.node[4] veinsmobilityType "\"org.car2x.veins.modules.mobility.traci.TraCIMobility\""
par Scenario.node[5].appl typename "\"org.car2x.veins.subprojects.iov_sim.modules.applications.VehicleApplication\""
par Scenario.node[5].appl headerLength 80bit
attr unit bit
par Scenario.node[5].appl sendBeacons false
par Scenario.node[5].appl beaconLengthBits 256bit
attr unit bit
par Scenario.node[5].appl beaconUserPriority 7
par Scenario.node[5].appl beaconInterval 1s
attr unit s
par Scenario.node[5].appl dataLengthBits 1024bit
attr unit bit
par Scenario.node[5].appl dataOnSch false
par Scenario.node[5].appl dataUserPriority 7
par Scenario.node[5].appl avoidBeaconSynchronization true
par Scenario.node[5].appl sendWSA false
par Scenario.node[5].appl wsaLengthBits 250bit
attr unit bit
par Scenario.node[5].appl wsaInterval 1s
attr unit s
par Scenario.node[5].appl appName "\"Vehicle Application\""
par Scenario.node[5].appl clusterBeaconDelay 5
par Scenario.node[5].appl localStepsPerEpoch 5
par Scenario.node[5].appl neighborTableTimeout 30
par Scenario.node[5].appl clusterElectionTimeout 3
par Scenario.node[5].appl clusterHeadTimeout 3
par Scenario.node[5].appl connectivityThreshold 0.6
par Scenario.node[5].appl electionScoreThreshold 0.6
par Scenario.node[5].appl clusterScoreThreshold 0.6
scalar Scenario.node[5].appl generatedWSMs 7
scalar Scenario.node[5].appl receivedWSMs 0
scalar Scenario.node[5].appl generatedBSMs 0
scalar Scenario.node[5].appl receivedBSMs 0
scalar Scenario.node[5].appl generatedWSAs 0
scalar Scenario.node[5].appl receivedWSAs 0
par Scenario.node[5].nic.phy80211p typename "\"org.car2x.veins.modules.phy.PhyLayer80211p\""
par Scenario.node[5].nic.phy80211p recordStats false
par Scenario.node[5].nic.phy80211p usePropagationDelay true
par Scenario.node[5].nic.phy80211p noiseFloor -98dBm
attr unit dBm
par Scenario.node[5].nic.phy80211p useNoiseFloor false
par Scenario.node[5].nic.phy80211p antenna "<Antenna type=\"SampledAntenna1D\" id=\"monopole\">...</Antenna> at /home/chandler/src/iov_sim/examples/iov_sim//antenna.xml:35"
par Scenario.node[5].nic.phy80211p antennaOffsetX 0m
attr unit m
par Scenario.node[5].nic.phy80211p antennaOffsetY 0m
attr unit m
par Scenario.node[5].nic.phy80211p antennaOffsetZ 1.895m
attr unit m
par Scenario.node[5].nic.phy80211p antennaOffsetYaw 0rad
attr unit rad
par Scenario.node[5].nic.phy80211p analogueModels "<root>...</root> at /home/chandler/src/iov_sim/examples/iov_sim//config.xml:34"
par Scenario.node[5].nic.phy80211p decider "<root>...</root> at /home/chandler/src/iov_sim/examples/iov_sim//config.xml:34"
par Scenario.node[5].nic.phy80211p minPowerLevel -110dBm
attr unit dBm
par Scenario.node[5].nic.phy80211p timeRXToTX 0s
attr unit s
par Scenario.node[5].nic.phy80211p timeRXToSleep 0s
attr unit s
par Scenario.node[5].nic.phy80211p timeTXToRX 0s
attr unit s
par Scenario.node[5].nic.phy80211p timeTXToSleep 0s
attr unit s
par Scenario.node[5].nic.phy80211p timeSleepToRX 0s
attr unit s
par Scenario.node[5].nic.phy80211p timeSleepToTX 0s
attr unit s
par Scenario.node[5].nic.phy80211p initialRadioState 0
par Scenario.node[5].nic.phy80211p radioMinAtt 1
par Scenario.node[5].nic.phy80211p radioMaxAtt 0
par Scenario.node[5].nic.phy80211p nbRadioChannels 1
par Scenario.node[5].nic.phy80211p initialRadioChannel 0
par Scenario.node[5].nic.phy80211p ccaThreshold -65dBm
attr unit dBm
par Scenario.node[5].nic.phy80211p collectCollisionStatistics false
par Scenario.node[5].nic.phy80211p allowTxDuringRx false
scalar Scenario.node[5].nic.phy80211p busyTime 0.00020620968314779
par Scenario.node[5].nic.mac1609_4 typename "\"org.car2x.veins.modules.mac.ieee80211p.Mac1609_4\""
par Scenario.node[5].nic.mac1609_4 notAffectedByHostState false
par Scenario.node[5].nic.mac1609_4 headerLength 0bit
attr unit bit
par Scenario.node[5].nic.mac1609_4 address "\"auto\""
par Scenario.node[5].nic.mac1609_4 useServiceChannel false
par Scenario.node[5].nic.mac1609_4 serviceChannel 1
par Scenario.node[5].nic.mac1609_4 bitrate 6000000bps
attr unit bps
par Scenario.node[5].nic.mac1609_4 syncOffset 0.0003s
attr unit s
par Scenario.node[5].nic.mac1609_4 txPower 20mW
attr unit mW
par Scenario.node[5].nic.mac1609_4 queueSize 0
par Scenario.node[5].nic.mac1609_4 dot11RTSThreshold 12000bit
attr unit bit
par Scenario.node[5].nic.mac1609_4 dot11ShortRetryLimit 7
par Scenario.node[5].nic.mac1609_4 dot11LongRetryLimit 4
par Scenario.node[5].nic.mac1609_4 ackLength 112bit
attr unit bit
par Scenario.node[5].nic.mac1609_4 useAcks false
par Scenario.node[5].nic.mac1609_4 frameErrorRate 0
par Scenario.node[5].nic.mac1609_4 ackErrorRate 0
scalar Scenario.node[5].nic.mac1609_4 ReceivedUnicastPackets 0
scalar Scenario.node[5].nic.mac1609_4 ReceivedBroadcasts 6
scalar Scenario.node[5].nic.mac1609_4 SentPackets 6
scalar Scenario.node[5].nic.mac1609_4 SentAcknowledgements 0
scalar Scenario.node[5].nic.mac1609_4 RetriesExceeded 0
scalar Scenario.node[5].nic.mac1609_4 SNIRLostPackets 2
scalar Scenario.node[5].nic.mac1609_4 RXTXLostPackets 0
scalar Scenario.node[5].nic.mac1609_4 TotalLostPackets 2
scalar Scenario.node[5].nic.mac1609_4 DroppedPacketsInMac 0
scalar Scenario.node[5].nic.mac1609_4 TooLittleTime 0
scalar Scenario.node[5].nic.mac1609_4 TimesIntoBackoff 6
scalar Scenario.node[5].nic.mac1609_4 SlotsBackoff 11
scalar Scenario.node[5].nic.mac1609_4 NumInternalContention 0
scalar Scenario.node[5].nic.mac1609_4 totalBusyTime 0.003022
scalar Scenario.node[5].nic.mac1609_4 retriesExceeded:count 0
attr recordingmode count
attr source org_car2x_veins_modules_mac_sigRetriesExceeded
scalar Scenario.node[5].nic.mac1609_4 sentAcks:count 0
attr recordingmode count
attr source org_car2x_veins_modules_mac_sigSentAck
scalar Scenario.node[5].nic.mac1609_4 sentPackets:count 6
attr recordingmode count
attr source org_car2x_veins_modules_mac_sigSentPacket
scalar Scenario.node[5].nic.mac1609_4 collisions:count 0
attr recordingmode count
attr source org_car2x_veins_modules_mac_sigCollision
scalar Scenario.node[5].nic.mac1609_4 channelBusy:timeavg 0.00033575736124602
attr recordingmode timeavg
attr source org_car2x_veins_modules_mac_sigChannelBusy
par Scenario.node[5].nic typename "\"org.car2x.veins.modules.nic.Nic80211p\""
par Scenario.node[5].nic connectionManagerName "\"connectionManager\""
par Scenario.node[5].veinsmobility typename "\"org.car2x.veins.modules.mobility.traci.TraCIMobility\""
par Scenario.node[5].veinsmobility notAffectedByHostState true
par Scenario.node[5].veinsmobility x 0
par Scenario.node[5].veinsmobility y 0
par Scenario.node[5].veinsmobility z 0
par Scenario.node[5].veinsmobility xOrientation 1
par Scenario.node[5].veinsmobility yOrientation 0
par Scenario.node[5].veinsmobility zOrientation 0
par Scenario.node[5].veinsmobility hostPositionOffset 0m
attr unit m
par Scenario.node[5].veinsmobility setHostSpeed false
par Scenario.node[5].veinsmobility accidentCount 0
par Scenario.node[5].veinsmobility accidentStart 58.7685s
attr unit s
par Scenario.node[5].veinsmobility accidentDuration "uniform(30s, 60s)"
attr unit s
par Scenario.node[5].veinsmobility accidentInterval "uniform(30s, 60s)"
attr unit s
scalar Scenario.node[5].veinsmobility startTime 4
scalar Scenario.node[5].veinsmobility totalTime 9
scalar Scenario.node[5].veinsmobility stopTime 13.000547266589
scalar Scenario.node[5].veinsmobility minSpeed 2.1130978513975
scalar Scenario.node[5].veinsmobility maxSpeed 13.190850515421
scalar Scenario.node[5].veinsmobility totalDistance 72.912367498216
scalar Scenario.node[5].veinsmobility totalCO2Emission 35.048085871541
par Scenario.node[5] typename "\"org.car2x.veins.nodes.Car\""
par Scenario.node[5] applType "\"VehicleApplication\""
par Scenario.node[5] nicType "\"Nic80211p\""
par Scenario.node[5] veinsmobilityType "\"org.car2x.veins.modules.mobility.traci.TraCIMobility\""
par Scenario.node[6].appl typename "\"org.car2x.veins.subprojects.iov_sim.modules.applications.VehicleApplication\""
par Scenario.node[6].appl headerLength 80bit
attr unit bit
par Scenario.node[6].appl sendBeacons false
par Scenario.node[6].appl beaconLengthBits 256bit
attr unit bit
par Scenario.node[6].appl beaconUserPriority 7
par Scenario.node[6].appl beaconInterval 1s
attr unit s
par Scenario.node[6].appl dataLengthBits 1024bit
attr unit bit
par Scenario.node[6].appl dataOnSch false
par Scenario.node[6].appl dataUserPriority 7
par Scenario.node[6].appl avoidBeaconSynchronization true
par Scenario.node[6].appl sendWSA false
par Scenario.node[6].appl wsaLengthBits 250bit
attr unit bit
par Scenario.node[6].appl wsaInterval 1s
attr unit s
par Scenario.node[6].appl appName "\"Vehicle Application\""
par Scenario.node[6].appl clusterBeaconDelay 5
par Scenario.node[6].appl localStepsPerEpoch 5
par Scenario.node[6].appl neighborTableTimeout 30
par Scenario.node[6].appl clusterElectionTimeout 3
par Scenario.node[6].appl clusterHeadTimeout 3
par Scenario.node[6].appl connectivityThreshold 0.6
par Scenario.node[6].appl electionScoreThreshold 0.6
par Scenario.node[6].appl clusterScoreThreshold 0.6
scalar Scenario.node[6].appl generatedWSMs 7
scalar Scenario.node[6].appl receivedWSMs 0
scalar Scenario.node[6].appl generatedBSMs 0
scalar Scenario.node[6].appl receivedBSMs 0
scalar Scenario.node[6].appl generatedWSAs 0
scalar Scenario.node[6].appl receivedWSAs 0
par Scenario.node[6].nic.phy80211p typename "\"org.car2x.veins.modules.phy.PhyLayer80211p\""
par Scenario.node[6].nic.phy80211p recordStats false
par Scenario.node[6].nic.phy80211p usePropagationDelay true
par Scenario.node[6].nic.phy80211p noiseFloor -98dBm
attr unit dBm
par Scenario.node[6].nic.phy80211p useNoiseFloor false
par Scenario.node[6].nic.phy80211p antenna "<Antenna type=\"SampledAntenna1D\" id=\"monopole\">...</Antenna> at /home/chandler/src/iov_sim/examples/iov_sim//antenna.xml:35"
par Scenario.node[6].nic.phy80211p antennaOffsetX 0m
attr unit m
par Scenario.node[6].nic.phy80211p antennaOffsetY 0m
attr unit m
par Scenario.node[6].nic.phy80211p antennaOffsetZ 1.895m
attr unit m
par Scenario.node[6].nic.phy80211p antennaOffsetYaw 0rad
attr unit rad
par Scenario.node[6].nic.phy80211p analogueModels "<root>...</root> at /home/chandler/src/iov_sim/examples/iov_sim//config.xml:34"
par Scenario.node[6].nic.phy80211p decider "<root>...</root> at /home/chandler/src/iov_sim/examples/iov_sim//config.xml:34"
par Scenario.node[6].nic.phy80211p minPowerLevel -110dBm
attr unit dBm
par Scenario.node[6].nic.phy80211p timeRXToTX 0s
attr unit s
par Scenario.node[6].nic.phy80211p timeRXToSleep 0s
attr unit s
par Scenario.node[6].nic.phy80211p timeTXToRX 0s
attr unit s
par Scenario.node[6].nic.phy80211p timeTXToSleep 0s
attr unit s
par Scenario.node[6].nic.phy80211p timeSleepToRX 0s
attr unit s
par Scenario.node[6].nic.phy80211p timeSleepToTX 0s
attr unit s
par Scenario.node[6].nic.phy80211p initialRadioState 0
par Scenario.node[6].nic.phy80211p radioMinAtt 1
par Scenario.node[6].nic.phy80211p radioMaxAtt 0
par Scenario.node[6].nic.phy80211p nbRadioChannels 1
par Scenario.node[6].nic.phy80211p initialRadioChannel 0
par Scenario.node[6].nic.phy80211p ccaThreshold -65dBm
attr unit dBm
par Scenario.node[6].nic.phy80211p collectCollisionStatistics false
par Scenario.node[6].nic.phy80211p allowTxDuringRx false
scalar Scenario.node[6].nic.phy80211p busyTime 0
par Scenario.node[6].nic.mac1609_4 typename "\"org.car2x.veins.modules.mac.ieee80211p.Mac1609_4\""
par Scenario.node[6].nic.mac1609_4 notAffectedByHostState false
par Scenario.node[6].nic.mac1609_4 headerLength 0bit
attr unit bit
par Scenario.node[6].nic.mac1609_4 address "\"auto\""
par Scenario.node[6].nic.mac1609_4 useServiceChannel false
par Scenario.node[6].nic.mac1609_4 serviceChannel 1
par Scenario.node[6].nic.mac1609_4 bitrate 6000000bps
attr unit bps
par Scenario.node[6].nic.mac1609_4 syncOffset 0.0003s
attr unit s
par Scenario.node[6].nic.mac1609_4 txPower 20mW
attr unit mW
par Scenario.node[6].nic.mac1609_4 queueSize 0
par Scenario.node[6].nic.mac1609_4 dot11RTSThreshold 12000bit
attr unit bit
par Scenario.node[6].nic.mac1609_4 dot11ShortRetryLimit 7
par Scenario.node[6].nic.mac1609_4 dot11LongRetryLimit 4
par Scenario.node[6].nic.mac1609_4 ackLength 112bit
attr unit bit
par Scenario.node[6].nic.mac1609_4 useAcks false
par Scenario.node[6].nic.mac1609_4 frameErrorRate 0
par Scenario.node[6].nic.mac1609_4 ackErrorRate 0
scalar Scenario.node[6].nic.mac1609_4 ReceivedUnicastPackets 0
scalar Scenario.node[6].nic.mac1609_4 ReceivedBroadcasts 0
scalar Scenario.node[6].nic.mac1609_4 SentPackets 6
scalar Scenario.node[6].nic.mac1609_4 SentAcknowledgements 0
scalar Scenario.node[6].nic.mac1609_4 RetriesExceeded 0
scalar Scenario.node[6].nic.mac1609_4 SNIRLostPackets 0
scalar Scenario.node[6].nic.mac1609_4 RXTXLostPackets 0
scalar Scenario.node[6].nic.mac1609_4 TotalLostPackets 0
scalar Scenario.node[6].nic.mac1609_4 DroppedPacketsInMac 0
scalar Scenario.node[6].nic.mac1609_4 TooLittleTime 0
scalar Scenario.node[6].nic.mac1609_4 TimesIntoBackoff 6
scalar Scenario.node[6].nic.mac1609_4 SlotsBackoff 3
scalar Scenario.node[6].nic.mac1609_4 NumInternalContention 0
scalar Scenario.node[6].nic.mac1609_4 totalBusyTime 0.001398
scalar Scenario.node[6].nic.mac1609_4 retriesExceeded:count 0
attr recordingmode count
attr source org_car2x_veins_modules_mac_sigRetriesExceeded
scalar Scenario.node[6].nic.mac1609_4 sentAcks:count 0
attr recordingmode count
attr source org_car2x_veins_modules_mac_sigSentAck
scalar Scenario.node[6].nic.mac1609_4 sentPackets:count 6
attr recordingmode count
attr source org_car2x_veins_modules_mac_sigSentPacket
scalar Scenario.node[6].nic.mac1609_4 collisions:count 0
attr recordingmode count
attr source org_car2x_veins_modules_mac_sigCollision
scalar Scenario.node[6].nic.mac1609_4 channelBusy:timeavg 0.00015532388849171
attr recordingmode timeavg
attr source org_car2x_veins_modules_mac_sigChannelBusy
par Scenario.node[6].nic typename "\"org.car2x.veins.modules.nic.Nic80211p\""
par Scenario.node[6].nic connectionManagerName "\"connectionManager\""
par Scenario.node[6].veinsmobility typename "\"org.car2x.veins.modules.mobility.traci.TraCIMobility\""
par Scenario.node[6].veinsmobility notAffectedByHostState true
par Scenario.node[6].veinsmobility x 0
par Scenario.node[6].veinsmobility y 0
par Scenario.node[6].veinsmobility z 0
par Scenario.node[6].veinsmobility xOrientation 1
par Scenario.node[6].veinsmobility yOrientation 0
par Scenario.node[6].veinsmobility zOrientation 0
par Scenario.node[6].veinsmobility hostPositionOffset 0m
attr unit m
par Scenario.node[6].veinsmobility setHostSpeed false
par Scenario.node[6].veinsmobility accidentCount 0
par Scenario.node[6].veinsmobility accidentStart 34.8393s
attr unit s
par Scenario.node[6].veinsmobility accidentDuration "uniform(30s, 60s)"
attr unit s
par Scenario.node[6].veinsmobility accidentInterval "uniform(30s, 60s)"
attr unit s
scalar Scenario.node[6].veinsmobility startTime 4
scalar Scenario.node[6].veinsmobility totalTime 9
scalar Scenario.node[6].veinsmobility stopTime 13.000547266589
scalar Scenario.node[6].veinsmobility minSpeed 2.2737992957234
scalar Scenario.node[6].veinsmobility maxSpeed 15.373526183865
scalar Scenario.node[6].veinsmobility totalDistance 79.190873898338
scalar Scenario.node[6].veinsmobility totalCO2Emission 43.517461620379
par Scenario.node[6] typename "\"org.car2x.veins.nodes.Car\""
par Scenario.node[6] applType "\"VehicleApplication\""
par Scenario.node[6] nicType "\"Nic80211p\""
par Scenario.node[6] veinsmobilityType "\"org.car2x.veins.modules.mobility.traci.TraCIMobility\""
par Scenario.node[7].appl typename "\"org.car2x.veins.subprojects.iov_sim.modules.applications.VehicleApplication\""
par Scenario.node[7].appl headerLength 80bit
attr unit bit
par Scenario.node[7].appl sendBeacons false
par Scenario.node[7].appl beaconLengthBits 256bit
attr unit bit
par Scenario.node[7].appl beaconUserPriority 7
par Scenario.node[7].appl beaconInterval 1s
attr unit s
par Scenario.node[7].appl dataLengthBits 1024bit
attr unit bit
par Scenario.node[7].appl dataOnSch false
par Scenario.node[7].appl dataUserPriority 7
par Scenario.node[7].appl avoidBeaconSynchronization true
par Scenario.node[7].appl sendWSA false
par Scenario.node[7].appl wsaLengthBits 250bit
attr unit bit
par Scenario.node[7].appl wsaInterval 1s
attr unit s
par Scenario.node[7].appl appName "\"Vehicle Application\""
par Scenario.node[7].appl clusterBeaconDelay 5
par Scenario.node[7].appl localStepsPerEpoch 5
par Scenario.node[7].appl neighborTableTimeout 30
par Scenario.node[7].appl clusterElectionTimeout 3
par Scenario.node[7].appl clusterHeadTimeout 3
par Scenario.node[7].appl connectivityThreshold 0.6
par Scenario.node[7].appl electionScoreThreshold 0.6
par Scenario.node[7].appl clusterScoreThreshold 0.6
scalar Scenario.node[7].appl generatedWSMs 5
scalar Scenario.node[7].appl receivedWSMs 0
scalar Scenario.node[7].appl generatedBSMs 0
scalar Scenario.node[7].appl receivedBSMs 0
scalar Scenario.node[7].appl generatedWSAs 0
scalar Scenario.node[7].appl receivedWSAs 0
par Scenario.node[7].nic.phy80211p typename "\"org.car2x.veins.modules.phy.PhyLayer80211p\""
par Scenario.node[7].nic.phy80211p recordStats false
par Scenario.node[7].nic.phy80211p usePropagationDelay true
par Scenario.node[7].nic.phy80211p noiseFloor -98dBm
attr unit dBm
par Scenario.node[7].nic.phy80211p useNoiseFloor false
par Scenario.node[7].nic.phy80211p antenna "<Antenna type=\"SampledAntenna1D\" id=\"monopole\">...</Antenna> at /home/chandler/src/iov_sim/examples/iov_sim//antenna.xml:35"
par Scenario.node[7].nic.phy80211p antennaOffsetX 0m
attr unit m
par Scenario.node[7].nic.phy80211p antennaOffsetY 0m
attr unit m
par Scenario.node[7].nic.phy80211p antennaOffsetZ 1.895m
attr unit m
par Scenario.node[7].nic.phy80211p antennaOffsetYaw 0rad
attr unit rad
par Scenario.node[7].nic.phy80211p analogueModels "<root>...</root> at /home/chandler/src/iov_sim/examples/iov_sim//config.xml:34"
par Scenario.node[7].nic.phy80211p decider "<root>...</root> at /home/chandler/src/iov_sim/examples/iov_sim//config.xml:34"
par Scenario.node[7].nic.phy80211p minPowerLevel -110dBm
attr unit dBm
par Scenario.node[7].nic.phy80211p timeRXToTX 0s
attr unit s
par Scenario.node[7].nic.phy80211p timeRXToSleep 0s
attr unit s
par Scenario.node[7].nic.phy80211p timeTXToRX 0s
attr unit s
par Scenario.node[7].nic.phy80211p timeTXToSleep 0s
attr unit s
par Scenario.node[7].nic.phy80211p timeSleepToRX 0s
attr unit s
par Scenario.node[7].nic.phy80211p timeSleepToTX 0s
attr unit s
par Scenario.node[7].nic.phy80211p initialRadioState 0
par Scenario.node[7].nic.phy80211p radioMinAtt 1
par Scenario.node[7].nic.phy80211p radioMaxAtt 0
par Scenario.node[7].nic.phy80211p nbRadioChannels 1
par Scenario.node[7].nic.phy80211p initialRadioChannel 0
par Scenario.node[7].nic.phy80211p ccaThreshold -65dBm
attr unit dBm
par Scenario.node[7].nic.phy80211p collectCollisionStatistics false
par Scenario.node[7].nic.phy80211p allowTxDuringRx false
scalar Scenario.node[7].nic.phy80211p busyTime 0.00026098214664885
par Scenario.node[7].nic.mac1609_4 typename "\"org.car2x.veins.modules.mac.ieee80211p.Mac1609_4\""
par Scenario.node[7].nic.mac1609_4 notAffectedByHostState false
par Scenario.node[7].nic.mac1609_4 headerLength 0bit
attr unit bit
par Scenario.node[7].nic.mac1609_4 address "\"auto\""
par Scenario.node[7].nic.mac1609_4 useServiceChannel false
par Scenario.node[7].nic.mac1609_4 serviceChannel 1
par Scenario.node[7].nic.mac1609_4 bitrate 6000000bps
attr unit bps
par Scenario.node[7].nic.mac1609_4 syncOffset 0.0003s
attr unit s
par Scenario.node[7].nic.mac1609_4 txPower 20mW
attr unit mW
par Scenario.node[7].nic.mac1609_4 queueSize 0
par Scenario.node[7].nic.mac1609_4 dot11RTSThreshold 12000bit
attr unit bit
par Scenario.node[7].nic.mac1609_4 dot11ShortRetryLimit 7
par Scenario.node[7].nic.mac1609_4 dot11LongRetryLimit 4
par Scenario.node[7].nic.mac1609_4 ackLength 112bit
attr unit bit
par Scenario.node[7].nic.mac1609_4 useAcks false
par Scenario.node[7].nic.mac1609_4 frameErrorRate 0
par Scenario.node[7].nic.mac1609_4 ackErrorRate 0
scalar Scenario.node[7].nic.mac1609_4 ReceivedUnicastPackets 0
scalar Scenario.node[7].nic.mac1609_4 ReceivedBroadcasts 6
scalar Scenario.node[7].nic.mac1609_4 SentPackets 5
scalar Scenario.node[7].nic.mac1609_4 SentAcknowledgements 0
scalar Scenario.node[7].nic.mac1609_4 RetriesExceeded 0
scalar Scenario.node[7].nic.mac1609_4 SNIRLostPackets 3
scalar Scenario.node[7].nic.mac1609_4 RXTXLostPackets 0
scalar Scenario.node[7].nic.mac1609_4 TotalLostPackets 3
scalar Scenario.node[7].nic.mac1609_4 DroppedPacketsInMac 0
scalar Scenario.node[7].nic.mac1609_4 TooLittleTime 0
scalar Scenario.node[7].nic.mac1609_4 TimesIntoBackoff 6
scalar Scenario.node[7].nic.mac1609_4 SlotsBackoff 7
scalar Scenario.node[7].nic.mac1609_4 NumInternalContention 0
scalar Scenario.node[7].nic.mac1609_4 totalBusyTime 0.002557
scalar Scenario.node[7].nic.mac1609_4 retriesExceeded:count 0
attr moduledisplaypath "Scenario.electing CH src...nic.mac1609_4"
attr recordingmode count
attr source org_car2x_veins_modules_mac_sigRetriesExceeded
scalar Scenario.node[7].nic.mac1609_4 sentAcks:count 0
attr moduledisplaypath "Scenario.electing CH src...nic.mac1609_4"
attr recordingmode count
attr source org_car2x_veins_modules_mac_sigSentAck
scalar Scenario.node[7].nic.mac1609_4 sentPackets:count 5
attr moduledisplaypath "Scenario.electing CH src...nic.mac1609_4"
attr recordingmode count
attr source org_car2x_veins_modules_mac_sigSentPacket
scalar Scenario.node[7].nic.mac1609_4 collisions:count 0
attr moduledisplaypath "Scenario.electing CH src...nic.mac1609_4"
attr recordingmode count
attr source org_car2x_veins_modules_mac_sigCollision
scalar Scenario.node[7].nic.mac1609_4 channelBusy:timeavg 0.00031960313648521
attr moduledisplaypath "Scenario.electing CH src...nic.mac1609_4"
attr recordingmode timeavg
attr source org_car2x_veins_modules_mac_sigChannelBusy
par Scenario.node[7].nic typename "\"org.car2x.veins.modules.nic.Nic80211p\""
par Scenario.node[7].nic connectionManagerName "\"connectionManager\""
par Scenario.node[7].veinsmobility typename "\"org.car2x.veins.modules.mobility.traci.TraCIMobility\""
par Scenario.node[7].veinsmobility notAffectedByHostState true
par Scenario.node[7].veinsmobility x 0
par Scenario.node[7].veinsmobility y 0
par Scenario.node[7].veinsmobility z 0
par Scenario.node[7].veinsmobility xOrientation 1
par Scenario.node[7].veinsmobility yOrientation 0
par Scenario.node[7].veinsmobility zOrientation 0
par Scenario.node[7].veinsmobility hostPositionOffset 0m
attr unit m
par Scenario.node[7].veinsmobility setHostSpeed false
par Scenario.node[7].veinsmobility accidentCount 0
par Scenario.node[7].veinsmobility accidentStart 53.3504s
attr unit s
par Scenario.node[7].veinsmobility accidentDuration "uniform(30s, 60s)"
attr unit s
par Scenario.node[7].veinsmobility accidentInterval "uniform(30s, 60s)"
attr unit s
scalar Scenario.node[7].veinsmobility startTime 5
scalar Scenario.node[7].veinsmobility totalTime 8
scalar Scenario.node[7].veinsmobility stopTime 13.000547266589
scalar Scenario.node[7].veinsmobility minSpeed 2.208746208949
scalar Scenario.node[7].veinsmobility maxSpeed 10.365035574221
scalar Scenario.node[7].veinsmobility totalDistance 59.810222240841
scalar Scenario.node[7].veinsmobility totalCO2Emission 24.780938668902
par Scenario.node[7] typename "\"org.car2x.veins.nodes.Car\""
par Scenario.node[7] applType "\"VehicleApplication\""
par Scenario.node[7] nicType "\"Nic80211p\""
par Scenario.node[7] veinsmobilityType "\"org.car2x.veins.modules.mobility.traci.TraCIMobility\""
par Scenario.node[8].appl typename "\"org.car2x.veins.subprojects.iov_sim.modules.applications.VehicleApplication\""
par Scenario.node[8].appl headerLength 80bit
attr unit bit
par Scenario.node[8].appl sendBeacons false
par Scenario.node[8].appl beaconLengthBits 256bit
attr unit bit
par Scenario.node[8].appl beaconUserPriority 7
par Scenario.node[8].appl beaconInterval 1s
attr unit s
par Scenario.node[8].appl dataLengthBits 1024bit
attr unit bit
par Scenario.node[8].appl dataOnSch false
par Scenario.node[8].appl dataUserPriority 7
par Scenario.node[8].appl avoidBeaconSynchronization true
par Scenario.node[8].appl sendWSA false
par Scenario.node[8].appl wsaLengthBits 250bit
attr unit bit
par Scenario.node[8].appl wsaInterval 1s
attr unit s
par Scenario.node[8].appl appName "\"Vehicle Application\""
par Scenario.node[8].appl clusterBeaconDelay 5
par Scenario.node[8].appl localStepsPerEpoch 5
par Scenario.node[8].appl neighborTableTimeout 30
par Scenario.node[8].appl clusterElectionTimeout 3
par Scenario.node[8].appl clusterHeadTimeout 3
par Scenario.node[8].appl connectivityThreshold 0.6
par Scenario.node[8].appl electionScoreThreshold 0.6
par Scenario.node[8].appl clusterScoreThreshold 0.6
scalar Scenario.node[8].appl generatedWSMs 4
scalar Scenario.node[8].appl receivedWSMs 0
scalar Scenario.node[8].appl generatedBSMs 0
scalar Scenario.node[8].appl receivedBSMs 0
scalar Scenario.node[8].appl generatedWSAs 0
scalar Scenario.node[8].appl receivedWSAs 0
par Scenario.node[8].nic.phy80211p typename "\"org.car2x.veins.modules.phy.PhyLayer80211p\""
par Scenario.node[8].nic.phy80211p recordStats false
par Scenario.node[8].nic.phy80211p usePropagationDelay true
par Scenario.node[8].nic.phy80211p noiseFloor -98dBm
attr unit dBm
par Scenario.node[8].nic.phy80211p useNoiseFloor false
par Scenario.node[8].nic.phy80211p antenna "<Antenna type=\"SampledAntenna1D\" id=\"monopole\">...</Antenna> at /home/chandler/src/iov_sim/examples/iov_sim//antenna.xml:35"
par Scenario.node[8].nic.phy80211p antennaOffsetX 0m
attr unit m
par Scenario.node[8].nic.phy80211p antennaOffsetY 0m
attr unit m
par Scenario.node[8].nic.phy80211p antennaOffsetZ 1.895m
attr unit m
par Scenario.node[8].nic.phy80211p antennaOffsetYaw 0rad
attr unit rad
par Scenario.node[8].nic.phy80211p analogueModels "<root>...</root> at /home/chandler/src/iov_sim/examples/iov_sim//config.xml:34"
par Scenario.node[8].nic.phy80211p decider "<root>...</root> at /home/chandler/src/iov_sim/examples/iov_sim//config.xml:34"
par Scenario.node[8].nic.phy80211p minPowerLevel -110dBm
attr unit dBm
par Scenario.node[8].nic.phy80211p timeRXToTX 0s
attr unit s
par Scenario.node[8].nic.phy80211p timeRXToSleep 0s
attr unit s
par Scenario.node[8].nic.phy80211p timeTXToRX 0s
attr unit s
par Scenario.node[8].nic.phy80211p timeTXToSleep 0s
attr unit s
par Scenario.node[8].nic.phy80211p timeSleepToRX 0s
attr unit s
par Scenario.node[8].nic.phy80211p timeSleepToTX 0s
attr unit s
par Scenario.node[8].nic.phy80211p initialRadioState 0
par Scenario.node[8].nic.phy80211p radioMinAtt 1
par Scenario.node[8].nic.phy80211p radioMaxAtt 0
par Scenario.node[8].nic.phy80211p nbRadioChannels 1
par Scenario.node[8].nic.phy80211p initialRadioChannel 0
par Scenario.node[8].nic.phy80211p ccaThreshold -65dBm
attr unit dBm
par Scenario.node[8].nic.phy80211p collectCollisionStatistics false
par Scenario.node[8].nic.phy80211p allowTxDuringRx false
scalar Scenario.node[8].nic.phy80211p busyTime 0.00031897817923749
par Scenario.node[8].nic.mac1609_4 typename "\"org.car2x.veins.modules.mac.ieee80211p.Mac1609_4\""
par Scenario.node[8].nic.mac1609_4 notAffectedByHostState false
par Scenario.node[8].nic.mac1609_4 headerLength 0bit
attr unit bit
par Scenario.node[8].nic.mac1609_4 address "\"auto\""
par Scenario.node[8].nic.mac1609_4 useServiceChannel false
par Scenario.node[8].nic.mac1609_4 serviceChannel 1
par Scenario.node[8].nic.mac1609_4 bitrate 6000000bps
attr unit bps
par Scenario.node[8].nic.mac1609_4 syncOffset 0.0003s
attr unit s
par Scenario.node[8].nic.mac1609_4 txPower 20mW
attr unit mW
par Scenario.node[8].nic.mac1609_4 queueSize 0
par Scenario.node[8].nic.mac1609_4 dot11RTSThreshold 12000bit
attr unit bit
par Scenario.node[8].nic.mac1609_4 dot11ShortRetryLimit 7
par Scenario.node[8].nic.mac1609_4 dot11LongRetryLimit 4
par Scenario.node[8].nic.mac1609_4 ackLength 112bit
attr unit bit
par Scenario.node[8].nic.mac1609_4 useAcks false
par Scenario.node[8].nic.mac1609_4 frameErrorRate 0
par Scenario.node[8].nic.mac1609_4 ackErrorRate 0
scalar Scenario.node[8].nic.mac1609_4 ReceivedUnicastPackets 0
scalar Scenario.node[8].nic.mac1609_4 ReceivedBroadcasts 9
scalar Scenario.node[8].nic.mac1609_4 SentPackets 4
scalar Scenario.node[8].nic.mac1609_4 SentAcknowledgements 0
scalar Scenario.node[8].nic.mac1609_4 RetriesExceeded 0
scalar Scenario.node[8].nic.mac1609_4 SNIRLostPackets 2
scalar Scenario.node[8].nic.mac1609_4 RXTXLostPackets 0
scalar Scenario.node[8].nic.mac1609_4 TotalLostPackets 2
scalar Scenario.node[8].nic.mac1609_4 DroppedPacketsInMac 0
scalar Scenario.node[8].nic.mac1609_4 TooLittleTime 0
scalar Scenario.node[8].nic.mac1609_4 TimesIntoBackoff 4
scalar Scenario.node[8].nic.mac1609_4 SlotsBackoff 6
scalar Scenario.node[8].nic.mac1609_4 NumInternalContention 0
scalar Scenario.node[8].nic.mac1609_4 totalBusyTime 0.00302
scalar Scenario.node[8].nic.mac1609_4 retriesExceeded:count 0
attr moduledisplaypath "Scenario.node[1]'s CM.nic.mac1609_4"
attr recordingmode count
attr source org_car2x_veins_modules_mac_sigRetriesExceeded
scalar Scenario.node[8].nic.mac1609_4 sentAcks:count 0
attr moduledisplaypath "Scenario.node[1]'s CM.nic.mac1609_4"
attr recordingmode count
attr source org_car2x_veins_modules_mac_sigSentAck
scalar Scenario.node[8].nic.mac1609_4 sentPackets:count 4
attr moduledisplaypath "Scenario.node[1]'s CM.nic.mac1609_4"
attr recordingmode count
attr source org_car2x_veins_modules_mac_sigSentPacket
scalar Scenario.node[8].nic.mac1609_4 collisions:count 0
attr moduledisplaypath "Scenario.node[1]'s CM.nic.mac1609_4"
attr recordingmode count
attr source org_car2x_veins_modules_mac_sigCollision
scalar Scenario.node[8].nic.mac1609_4 channelBusy:timeavg 0.0003774741776243
attr moduledisplaypath "Scenario.node[1]'s CM.nic.mac1609_4"
attr recordingmode timeavg
attr source org_car2x_veins_modules_mac_sigChannelBusy
par Scenario.node[8].nic typename "\"org.car2x.veins.modules.nic.Nic80211p\""
par Scenario.node[8].nic connectionManagerName "\"connectionManager\""
par Scenario.node[8].veinsmobility typename "\"org.car2x.veins.modules.mobility.traci.TraCIMobility\""
par Scenario.node[8].veinsmobility notAffectedByHostState true
par Scenario.node[8].veinsmobility x 0
par Scenario.node[8].veinsmobility y 0
par Scenario.node[8].veinsmobility z 0
par Scenario.node[8].veinsmobility xOrientation 1
par Scenario.node[8].veinsmobility yOrientation 0
par Scenario.node[8].veinsmobility zOrientation 0
par Scenario.node[8].veinsmobility hostPositionOffset 0m
attr unit m
par Scenario.node[8].veinsmobility setHostSpeed false
par Scenario.node[8].veinsmobility accidentCount 0
par Scenario.node[8].veinsmobility accidentStart 54.6298s
attr unit s
par Scenario.node[8].veinsmobility accidentDuration "uniform(30s, 60s)"
attr unit s
par Scenario.node[8].veinsmobility accidentInterval "uniform(30s, 60s)"
attr unit s
scalar Scenario.node[8].veinsmobility startTime 5
scalar Scenario.node[8].veinsmobility totalTime 8
scalar Scenario.node[8].veinsmobility stopTime 13.000547266589
scalar Scenario.node[8].veinsmobility minSpeed 7.8370839406151
scalar Scenario.node[8].veinsmobility maxSpeed 14.61871165192
scalar Scenario.node[8].veinsmobility totalDistance 80.638766399918
scalar Scenario.node[8].veinsmobility totalCO2Emission 18.965078761884
par Scenario.node[8] typename "\"org.car2x.veins.nodes.Car\""
par Scenario.node[8] applType "\"VehicleApplication\""
par Scenario.node[8] nicType "\"Nic80211p\""
par Scenario.node[8] veinsmobilityType "\"org.car2x.veins.modules.mobility.traci.TraCIMobility\""
par Scenario.node[9].appl typename "\"org.car2x.veins.subprojects.iov_sim.modules.applications.VehicleApplication\""
par Scenario.node[9].appl headerLength 80bit
attr unit bit
par Scenario.node[9].appl sendBeacons false
par Scenario.node[9].appl beaconLengthBits 256bit
attr unit bit
par Scenario.node[9].appl beaconUserPriority 7
par Scenario.node[9].appl beaconInterval 1s
attr unit s
par Scenario.node[9].appl dataLengthBits 1024bit
attr unit bit
par Scenario.node[9].appl dataOnSch false
par Scenario.node[9].appl dataUserPriority 7
par Scenario.node[9].appl avoidBeaconSynchronization true
par Scenario.node[9].appl sendWSA false
par Scenario.node[9].appl wsaLengthBits 250bit
attr unit bit
par Scenario.node[9].appl wsaInterval 1s
attr unit s
par Scenario.node[9].appl appName "\"Vehicle Application\""
par Scenario.node[9].appl clusterBeaconDelay 5
par Scenario.node[9].appl localStepsPerEpoch 5
par Scenario.node[9].appl neighborTableTimeout 30
par Scenario.node[9].appl clusterElectionTimeout 3
par Scenario.node[9].appl clusterHeadTimeout 3
par Scenario.node[9].appl connectivityThreshold 0.6
par Scenario.node[9].appl electionScoreThreshold 0.6
par Scenario.node[9].appl clusterScoreThreshold 0.6
scalar Scenario.node[9].appl generatedWSMs 6
scalar Scenario.node[9].appl receivedWSMs 0
scalar Scenario.node[9].appl generatedBSMs 0
scalar Scenario.node[9].appl receivedBSMs 0
scalar Scenario.node[9].appl generatedWSAs 0
scalar Scenario.node[9].appl receivedWSAs 0
par Scenario.node[9].nic.phy80211p typename "\"org.car2x.veins.modules.phy.PhyLayer80211p\""
par Scenario.node[9].nic.phy80211p recordStats false
par Scenario.node[9].nic.phy80211p usePropagationDelay true
par Scenario.node[9].nic.phy80211p noiseFloor -98dBm
attr unit dBm
par Scenario.node[9].nic.phy80211p useNoiseFloor false
par Scenario.node[9].nic.phy80211p antenna "<Antenna type=\"SampledAntenna1D\" id=\"monopole\">...</Antenna> at /home/chandler/src/iov_sim/examples/iov_sim//antenna.xml:35"
par Scenario.node[9].nic.phy80211p antennaOffsetX 0m
attr unit m
par Scenario.node[9].nic.phy80211p antennaOffsetY 0m
attr unit m
par Scenario.node[9].nic.phy80211p antennaOffsetZ 1.895m
attr unit m
par Scenario.node[9].nic.phy80211p antennaOffsetYaw 0rad
attr unit rad
par Scenario.node[9].nic.phy80211p analogueModels "<root>...</root> at /home/chandler/src/iov_sim/examples/iov_sim//config.xml:34"
par Scenario.node[9].nic.phy80211p decider "<root>...</root> at /home/chandler/src/iov_sim/examples/iov_sim//config.xml:34"
par Scenario.node[9].nic.phy80211p minPowerLevel -110dBm
attr unit dBm
par Scenario.node[9].nic.phy80211p timeRXToTX 0s
attr unit s
par Scenario.node[9].nic.phy80211p timeRXToSleep 0s
attr unit s
par Scenario.node[9].nic.phy80211p timeTXToRX 0s
attr unit s
par Scenario.node[9].nic.phy80211p timeTXToSleep 0s
attr unit s
par Scenario.node[9].nic.phy80211p timeSleepToRX 0s
attr unit s
par Scenario.node[9].nic.phy80211p timeSleepToTX 0s
attr unit s
par Scenario.node[9].nic.phy80211p initialRadioState 0
par Scenario.node[9].nic.phy80211p radioMinAtt 1
par Scenario.node[9].nic.phy80211p radioMaxAtt 0
par Scenario.node[9].nic.phy80211p nbRadioChannels 1
par Scenario.node[9].nic.phy80211p initialRadioChannel 0
par Scenario.node[9].nic.phy80211p ccaThreshold -65dBm
attr unit dBm
par Scenario.node[9].nic.phy80211p collectCollisionStatistics false
[...]
par Scenario.rsu[6].mobility y 3750
par Scenario.rsu[6].mobility z 3
par Scenario.rsu[6].mobility xOrientation 1
par Scenario.rsu[6].mobility yOrientation 0
par Scenario.rsu[6].mobility zOrientation 0
par Scenario.rsu[6] typename "\"org.car2x.veins.nodes.RSU\""
par Scenario.rsu[6] applType "\"RSUApplication\""
par Scenario.rsu[6] nicType "\"Nic80211p\""
par Scenario.rsu[7].appl typename "\"org.car2x.veins.subprojects.iov_sim.modules.applications.RSUApplication\""
par Scenario.rsu[7].appl headerLength 80bit
attr unit bit
par Scenario.rsu[7].appl sendBeacons false
par Scenario.rsu[7].appl beaconLengthBits 256bit
attr unit bit
par Scenario.rsu[7].appl beaconUserPriority 7
par Scenario.rsu[7].appl beaconInterval 1s
attr unit s
par Scenario.rsu[7].appl dataLengthBits 1024bit
attr unit bit
par Scenario.rsu[7].appl dataOnSch false
par Scenario.rsu[7].appl dataUserPriority 5
par Scenario.rsu[7].appl avoidBeaconSynchronization true
par Scenario.rsu[7].appl sendWSA false
par Scenario.rsu[7].appl wsaLengthBits 250bit
attr unit bit
par Scenario.rsu[7].appl wsaInterval 1s
attr unit s
par Scenario.rsu[7].appl appName "\"RSU Application\""
par Scenario.rsu[7].appl policyLoad "\"fed_p\""
par Scenario.rsu[7].appl policySave "\"fed_p\""
par Scenario.rsu[7].appl valueLoad "\"fed_v\""
par Scenario.rsu[7].appl valueSave "\"fed_v\""
par Scenario.rsu[7].appl loadModel true
par Scenario.rsu[7].appl saveModel true
scalar Scenario.rsu[7].appl generatedWSMs 0
scalar Scenario.rsu[7].appl receivedWSMs 0
scalar Scenario.rsu[7].appl generatedBSMs 0
scalar Scenario.rsu[7].appl receivedBSMs 0
scalar Scenario.rsu[7].appl generatedWSAs 0
scalar Scenario.rsu[7].appl receivedWSAs 0
par Scenario.rsu[7].nic.phy80211p typename "\"org.car2x.veins.modules.phy.PhyLayer80211p\""
par Scenario.rsu[7].nic.phy80211p recordStats false
par Scenario.rsu[7].nic.phy80211p usePropagationDelay true
par Scenario.rsu[7].nic.phy80211p noiseFloor -98dBm
attr unit dBm
par Scenario.rsu[7].nic.phy80211p useNoiseFloor false
par Scenario.rsu[7].nic.phy80211p antenna "<Antenna type=\"SampledAntenna1D\" id=\"monopole\">...</Antenna> at /home/chandler/src/iov_sim/examples/iov_sim//antenna.xml:35"
par Scenario.rsu[7].nic.phy80211p antennaOffsetX 0m
attr unit m
par Scenario.rsu[7].nic.phy80211p antennaOffsetY 0m
attr unit m
par Scenario.rsu[7].nic.phy80211p antennaOffsetZ 0m
attr unit m
par Scenario.rsu[7].nic.phy80211p antennaOffsetYaw 0rad
attr unit rad
par Scenario.rsu[7].nic.phy80211p analogueModels "<root>...</root> at /home/chandler/src/iov_sim/examples/iov_sim//config.xml:34"
par Scenario.rsu[7].nic.phy80211p decider "<root>...</root> at /home/chandler/src/iov_sim/examples/iov_sim//config.xml:34"
par Scenario.rsu[7].nic.phy80211p minPowerLevel -110dBm
attr unit dBm
par Scenario.rsu[7].nic.phy80211p timeRXToTX 0s
attr unit s
par Scenario.rsu[7].nic.phy80211p timeRXToSleep 0s
attr unit s
par Scenario.rsu[7].nic.phy80211p timeTXToRX 0s
attr unit s
par Scenario.rsu[7].nic.phy80211p timeTXToSleep 0s
attr unit s
par Scenario.rsu[7].nic.phy80211p timeSleepToRX 0s
attr unit s
par Scenario.rsu[7].nic.phy80211p timeSleepToTX 0s
attr unit s
par Scenario.rsu[7].nic.phy80211p initialRadioState 0
par Scenario.rsu[7].nic.phy80211p radioMinAtt 1
par Scenario.rsu[7].nic.phy80211p radioMaxAtt 0
par Scenario.rsu[7].nic.phy80211p nbRadioChannels 1
par Scenario.rsu[7].nic.phy80211p initialRadioChannel 0
par Scenario.rsu[7].nic.phy80211p ccaThreshold -65dBm
attr unit dBm
par Scenario.rsu[7].nic.phy80211p collectCollisionStatistics false
par Scenario.rsu[7].nic.phy80211p allowTxDuringRx false
scalar Scenario.rsu[7].nic.phy80211p busyTime 0
par Scenario.rsu[7].nic.mac1609_4 typename "\"org.car2x.veins.modules.mac.ieee80211p.Mac1609_4\""
par Scenario.rsu[7].nic.mac1609_4 notAffectedByHostState false
par Scenario.rsu[7].nic.mac1609_4 headerLength 0bit
attr unit bit
par Scenario.rsu[7].nic.mac1609_4 address "\"auto\""
par Scenario.rsu[7].nic.mac1609_4 useServiceChannel false
par Scenario.rsu[7].nic.mac1609_4 serviceChannel 1
par Scenario.rsu[7].nic.mac1609_4 bitrate 6000000bps
attr unit bps
par Scenario.rsu[7].nic.mac1609_4 syncOffset 0.0003s
attr unit s
par Scenario.rsu[7].nic.mac1609_4 txPower 20mW
attr unit mW
par Scenario.rsu[7].nic.mac1609_4 queueSize 0
par Scenario.rsu[7].nic.mac1609_4 dot11RTSThreshold 12000bit
attr unit bit
par Scenario.rsu[7].nic.mac1609_4 dot11ShortRetryLimit 7
par Scenario.rsu[7].nic.mac1609_4 dot11LongRetryLimit 4
par Scenario.rsu[7].nic.mac1609_4 ackLength 112bit
attr unit bit
par Scenario.rsu[7].nic.mac1609_4 useAcks false
par Scenario.rsu[7].nic.mac1609_4 frameErrorRate 0
par Scenario.rsu[7].nic.mac1609_4 ackErrorRate 0
scalar Scenario.rsu[7].nic.mac1609_4 ReceivedUnicastPackets 0
scalar Scenario.rsu[7].nic.mac1609_4 ReceivedBroadcasts 0
scalar Scenario.rsu[7].nic.mac1609_4 SentPackets 0
scalar Scenario.rsu[7].nic.mac1609_4 SentAcknowledgements 0
scalar Scenario.rsu[7].nic.mac1609_4 RetriesExceeded 0
scalar Scenario.rsu[7].nic.mac1609_4 SNIRLostPackets 0
scalar Scenario.rsu[7].nic.mac1609_4 RXTXLostPackets 0
scalar Scenario.rsu[7].nic.mac1609_4 TotalLostPackets 0
scalar Scenario.rsu[7].nic.mac1609_4 DroppedPacketsInMac 0
scalar Scenario.rsu[7].nic.mac1609_4 TooLittleTime 0
scalar Scenario.rsu[7].nic.mac1609_4 TimesIntoBackoff 0
scalar Scenario.rsu[7].nic.mac1609_4 SlotsBackoff 0
scalar Scenario.rsu[7].nic.mac1609_4 NumInternalContention 0
scalar Scenario.rsu[7].nic.mac1609_4 totalBusyTime 0
scalar Scenario.rsu[7].nic.mac1609_4 retriesExceeded:count 0
attr recordingmode count
attr source org_car2x_veins_modules_mac_sigRetriesExceeded
scalar Scenario.rsu[7].nic.mac1609_4 sentAcks:count 0
attr recordingmode count
attr source org_car2x_veins_modules_mac_sigSentAck
scalar Scenario.rsu[7].nic.mac1609_4 sentPackets:count 0
attr recordingmode count
attr source org_car2x_veins_modules_mac_sigSentPacket
scalar Scenario.rsu[7].nic.mac1609_4 collisions:count 0
attr recordingmode count
attr source org_car2x_veins_modules_mac_sigCollision
scalar Scenario.rsu[7].nic.mac1609_4 channelBusy:timeavg 0
attr recordingmode timeavg
attr source org_car2x_veins_modules_mac_sigChannelBusy
par Scenario.rsu[7].nic typename "\"org.car2x.veins.modules.nic.Nic80211p\""
par Scenario.rsu[7].nic connectionManagerName "\"connectionManager\""
par Scenario.rsu[7].mobility typename "\"org.car2x.veins.base.modules.BaseMobility\""
par Scenario.rsu[7].mobility notAffectedByHostState true
par Scenario.rsu[7].mobility x 2750
par Scenario.rsu[7].mobility y 6000
par Scenario.rsu[7].mobility z 3
par Scenario.rsu[7].mobility xOrientation 1
par Scenario.rsu[7].mobility yOrientation 0
par Scenario.rsu[7].mobility zOrientation 0
par Scenario.rsu[7] typename "\"org.car2x.veins.nodes.RSU\""
par Scenario.rsu[7] applType "\"RSUApplication\""
par Scenario.rsu[7] nicType "\"Nic80211p\""
par Scenario.rsu[8].appl typename "\"org.car2x.veins.subprojects.iov_sim.modules.applications.RSUApplication\""
par Scenario.rsu[8].appl headerLength 80bit
attr unit bit
par Scenario.rsu[8].appl sendBeacons false
par Scenario.rsu[8].appl beaconLengthBits 256bit
attr unit bit
par Scenario.rsu[8].appl beaconUserPriority 7
par Scenario.rsu[8].appl beaconInterval 1s
attr unit s
par Scenario.rsu[8].appl dataLengthBits 1024bit
attr unit bit
par Scenario.rsu[8].appl dataOnSch false
par Scenario.rsu[8].appl dataUserPriority 5
par Scenario.rsu[8].appl avoidBeaconSynchronization true
par Scenario.rsu[8].appl sendWSA false
par Scenario.rsu[8].appl wsaLengthBits 250bit
attr unit bit
par Scenario.rsu[8].appl wsaInterval 1s
attr unit s
par Scenario.rsu[8].appl appName "\"RSU Application\""
par Scenario.rsu[8].appl policyLoad "\"fed_p\""
par Scenario.rsu[8].appl policySave "\"fed_p\""
par Scenario.rsu[8].appl valueLoad "\"fed_v\""
par Scenario.rsu[8].appl valueSave "\"fed_v\""
par Scenario.rsu[8].appl loadModel true
par Scenario.rsu[8].appl saveModel true
scalar Scenario.rsu[8].appl generatedWSMs 0
scalar Scenario.rsu[8].appl receivedWSMs 0
scalar Scenario.rsu[8].appl generatedBSMs 0
scalar Scenario.rsu[8].appl receivedBSMs 0
scalar Scenario.rsu[8].appl generatedWSAs 0
scalar Scenario.rsu[8].appl receivedWSAs 0
par Scenario.rsu[8].nic.phy80211p typename "\"org.car2x.veins.modules.phy.PhyLayer80211p\""
par Scenario.rsu[8].nic.phy80211p recordStats false
par Scenario.rsu[8].nic.phy80211p usePropagationDelay true
par Scenario.rsu[8].nic.phy80211p noiseFloor -98dBm
attr unit dBm
par Scenario.rsu[8].nic.phy80211p useNoiseFloor false
par Scenario.rsu[8].nic.phy80211p antenna "<Antenna type=\"SampledAntenna1D\" id=\"monopole\">...</Antenna> at /home/chandler/src/iov_sim/examples/iov_sim//antenna.xml:35"
par Scenario.rsu[8].nic.phy80211p antennaOffsetX 0m
attr unit m
par Scenario.rsu[8].nic.phy80211p antennaOffsetY 0m
attr unit m
par Scenario.rsu[8].nic.phy80211p antennaOffsetZ 0m
attr unit m
par Scenario.rsu[8].nic.phy80211p antennaOffsetYaw 0rad
attr unit rad
par Scenario.rsu[8].nic.phy80211p analogueModels "<root>...</root> at /home/chandler/src/iov_sim/examples/iov_sim//config.xml:34"
par Scenario.rsu[8].nic.phy80211p decider "<root>...</root> at /home/chandler/src/iov_sim/examples/iov_sim//config.xml:34"
par Scenario.rsu[8].nic.phy80211p minPowerLevel -110dBm
attr unit dBm
par Scenario.rsu[8].nic.phy80211p timeRXToTX 0s
attr unit s
par Scenario.rsu[8].nic.phy80211p timeRXToSleep 0s
attr unit s
par Scenario.rsu[8].nic.phy80211p timeTXToRX 0s
attr unit s
par Scenario.rsu[8].nic.phy80211p timeTXToSleep 0s
attr unit s
par Scenario.rsu[8].nic.phy80211p timeSleepToRX 0s
attr unit s
par Scenario.rsu[8].nic.phy80211p timeSleepToTX 0s
attr unit s
par Scenario.rsu[8].nic.phy80211p initialRadioState 0
par Scenario.rsu[8].nic.phy80211p radioMinAtt 1
par Scenario.rsu[8].nic.phy80211p radioMaxAtt 0
par Scenario.rsu[8].nic.phy80211p nbRadioChannels 1
par Scenario.rsu[8].nic.phy80211p initialRadioChannel 0
par Scenario.rsu[8].nic.phy80211p ccaThreshold -65dBm
attr unit dBm
par Scenario.rsu[8].nic.phy80211p collectCollisionStatistics false
par Scenario.rsu[8].nic.phy80211p allowTxDuringRx false
scalar Scenario.rsu[8].nic.phy80211p busyTime 0
par Scenario.rsu[8].nic.mac1609_4 typename "\"org.car2x.veins.modules.mac.ieee80211p.Mac1609_4\""
par Scenario.rsu[8].nic.mac1609_4 notAffectedByHostState false
par Scenario.rsu[8].nic.mac1609_4 headerLength 0bit
attr unit bit
par Scenario.rsu[8].nic.mac1609_4 address "\"auto\""
par Scenario.rsu[8].nic.mac1609_4 useServiceChannel false
par Scenario.rsu[8].nic.mac1609_4 serviceChannel 1
par Scenario.rsu[8].nic.mac1609_4 bitrate 6000000bps
attr unit bps
par Scenario.rsu[8].nic.mac1609_4 syncOffset 0.0003s
attr unit s
par Scenario.rsu[8].nic.mac1609_4 txPower 20mW
attr unit mW
par Scenario.rsu[8].nic.mac1609_4 queueSize 0
par Scenario.rsu[8].nic.mac1609_4 dot11RTSThreshold 12000bit
attr unit bit
par Scenario.rsu[8].nic.mac1609_4 dot11ShortRetryLimit 7
par Scenario.rsu[8].nic.mac1609_4 dot11LongRetryLimit 4
par Scenario.rsu[8].nic.mac1609_4 ackLength 112bit
attr unit bit
par Scenario.rsu[8].nic.mac1609_4 useAcks false
par Scenario.rsu[8].nic.mac1609_4 frameErrorRate 0
par Scenario.rsu[8].nic.mac1609_4 ackErrorRate 0
scalar Scenario.rsu[8].nic.mac1609_4 ReceivedUnicastPackets 0
scalar Scenario.rsu[8].nic.mac1609_4 ReceivedBroadcasts 0
scalar Scenario.rsu[8].nic.mac1609_4 SentPackets 0
scalar Scenario.rsu[8].nic.mac1609_4 SentAcknowledgements 0
scalar Scenario.rsu[8].nic.mac1609_4 RetriesExceeded 0
scalar Scenario.rsu[8].nic.mac1609_4 SNIRLostPackets 0
scalar Scenario.rsu[8].nic.mac1609_4 RXTXLostPackets 0
scalar Scenario.rsu[8].nic.mac1609_4 TotalLostPackets 0
scalar Scenario.rsu[8].nic.mac1609_4 DroppedPacketsInMac 0
scalar Scenario.rsu[8].nic.mac1609_4 TooLittleTime 0
scalar Scenario.rsu[8].nic.mac1609_4 TimesIntoBackoff 0
scalar Scenario.rsu[8].nic.mac1609_4 SlotsBackoff 0
scalar Scenario.rsu[8].nic.mac1609_4 NumInternalContention 0
scalar Scenario.rsu[8].nic.mac1609_4 totalBusyTime 0
scalar Scenario.rsu[8].nic.mac1609_4 retriesExceeded:count 0
attr recordingmode count
attr source org_car2x_veins_modules_mac_sigRetriesExceeded
scalar Scenario.rsu[8].nic.mac1609_4 sentAcks:count 0
attr recordingmode count
attr source org_car2x_veins_modules_mac_sigSentAck
scalar Scenario.rsu[8].nic.mac1609_4 sentPackets:count 0
attr recordingmode count
attr source org_car2x_veins_modules_mac_sigSentPacket
scalar Scenario.rsu[8].nic.mac1609_4 collisions:count 0
attr recordingmode count
attr source org_car2x_veins_modules_mac_sigCollision
scalar Scenario.rsu[8].nic.mac1609_4 channelBusy:timeavg 0
attr recordingmode timeavg
attr source org_car2x_veins_modules_mac_sigChannelBusy
par Scenario.rsu[8].nic typename "\"org.car2x.veins.modules.nic.Nic80211p\""
par Scenario.rsu[8].nic connectionManagerName "\"connectionManager\""
par Scenario.rsu[8].mobility typename "\"org.car2x.veins.base.modules.BaseMobility\""
par Scenario.rsu[8].mobility notAffectedByHostState true
par Scenario.rsu[8].mobility x 5750
par Scenario.rsu[8].mobility y 5750
par Scenario.rsu[8].mobility z 3
par Scenario.rsu[8].mobility xOrientation 1
par Scenario.rsu[8].mobility yOrientation 0
par Scenario.rsu[8].mobility zOrientation 0
par Scenario.rsu[8] typename "\"org.car2x.veins.nodes.RSU\""
par Scenario.rsu[8] applType "\"RSUApplication\""
par Scenario.rsu[8] nicType "\"Nic80211p\""
par Scenario.rsu[9].appl typename "\"org.car2x.veins.subprojects.iov_sim.modules.applications.RSUApplication\""
par Scenario.rsu[9].appl headerLength 80bit
attr unit bit
par Scenario.rsu[9].appl sendBeacons false
par Scenario.rsu[9].appl beaconLengthBits 256bit
attr unit bit
par Scenario.rsu[9].appl beaconUserPriority 7
par Scenario.rsu[9].appl beaconInterval 1s
attr unit s
par Scenario.rsu[9].appl dataLengthBits 1024bit
attr unit bit
par Scenario.rsu[9].appl dataOnSch false
par Scenario.rsu[9].appl dataUserPriority 5
par Scenario.rsu[9].appl avoidBeaconSynchronization true
par Scenario.rsu[9].appl sendWSA false
par Scenario.rsu[9].appl wsaLengthBits 250bit
attr unit bit
par Scenario.rsu[9].appl wsaInterval 1s
attr unit s
par Scenario.rsu[9].appl appName "\"RSU Application\""
par Scenario.rsu[9].appl policyLoad "\"fed_p\""
par Scenario.rsu[9].appl policySave "\"fed_p\""
par Scenario.rsu[9].appl valueLoad "\"fed_v\""
par Scenario.rsu[9].appl valueSave "\"fed_v\""
par Scenario.rsu[9].appl loadModel true
par Scenario.rsu[9].appl saveModel true
scalar Scenario.rsu[9].appl generatedWSMs 0
scalar Scenario.rsu[9].appl receivedWSMs 0
scalar Scenario.rsu[9].appl generatedBSMs 0
scalar Scenario.rsu[9].appl receivedBSMs 0
scalar Scenario.rsu[9].appl generatedWSAs 0
scalar Scenario.rsu[9].appl receivedWSAs 0
par Scenario.rsu[9].nic.phy80211p typename "\"org.car2x.veins.modules.phy.PhyLayer80211p\""
par Scenario.rsu[9].nic.phy80211p recordStats false
par Scenario.rsu[9].nic.phy80211p usePropagationDelay true
par Scenario.rsu[9].nic.phy80211p noiseFloor -98dBm
attr unit dBm
par Scenario.rsu[9].nic.phy80211p useNoiseFloor false
par Scenario.rsu[9].nic.phy80211p antenna "<Antenna type=\"SampledAntenna1D\" id=\"monopole\">...</Antenna> at /home/chandler/src/iov_sim/examples/iov_sim//antenna.xml:35"
par Scenario.rsu[9].nic.phy80211p antennaOffsetX 0m
attr unit m
par Scenario.rsu[9].nic.phy80211p antennaOffsetY 0m
attr unit m
par Scenario.rsu[9].nic.phy80211p antennaOffsetZ 0m
attr unit m
par Scenario.rsu[9].nic.phy80211p antennaOffsetYaw 0rad
attr unit rad
par Scenario.rsu[9].nic.phy80211p analogueModels "<root>...</root> at /home/chandler/src/iov_sim/examples/iov_sim//config.xml:34"
par Scenario.rsu[9].nic.phy80211p decider "<root>...</root> at /home/chandler/src/iov_sim/examples/iov_sim//config.xml:34"
par Scenario.rsu[9].nic.phy80211p minPowerLevel -110dBm
attr unit dBm
par Scenario.rsu[9].nic.phy80211p timeRXToTX 0s
attr unit s
par Scenario.rsu[9].nic.phy80211p timeRXToSleep 0s
attr unit s
par Scenario.rsu[9].nic.phy80211p timeTXToRX 0s
attr unit s
par Scenario.rsu[9].nic.phy80211p timeTXToSleep 0s
attr unit s
par Scenario.rsu[9].nic.phy80211p timeSleepToRX 0s
attr unit s
par Scenario.rsu[9].nic.phy80211p timeSleepToTX 0s
attr unit s
par Scenario.rsu[9].nic.phy80211p initialRadioState 0
par Scenario.rsu[9].nic.phy80211p radioMinAtt 1
par Scenario.rsu[9].nic.phy80211p radioMaxAtt 0
par Scenario.rsu[9].nic.phy80211p nbRadioChannels 1
par Scenario.rsu[9].nic.phy80211p initialRadioChannel 0
par Scenario.rsu[9].nic.phy80211p ccaThreshold -65dBm
attr unit dBm
par Scenario.rsu[9].nic.phy80211p collectCollisionStatistics false
par Scenario.rsu[9].nic.phy80211p allowTxDuringRx false
scalar Scenario.rsu[9].nic.phy80211p busyTime 2.3331402364529e-05
par Scenario.rsu[9].nic.mac1609_4 typename "\"org.car2x.veins.modules.mac.ieee80211p.Mac1609_4\""
par Scenario.rsu[9].nic.mac1609_4 notAffectedByHostState false
par Scenario.rsu[9].nic.mac1609_4 headerLength 0bit
attr unit bit
par Scenario.rsu[9].nic.mac1609_4 address "\"auto\""
par Scenario.rsu[9].nic.mac1609_4 useServiceChannel false
par Scenario.rsu[9].nic.mac1609_4 serviceChannel 1
par Scenario.rsu[9].nic.mac1609_4 bitrate 6000000bps
attr unit bps
par Scenario.rsu[9].nic.mac1609_4 syncOffset 0.0003s
attr unit s
par Scenario.rsu[9].nic.mac1609_4 txPower 20mW
attr unit mW
par Scenario.rsu[9].nic.mac1609_4 queueSize 0
par Scenario.rsu[9].nic.mac1609_4 dot11RTSThreshold 12000bit
attr unit bit
par Scenario.rsu[9].nic.mac1609_4 dot11ShortRetryLimit 7
par Scenario.rsu[9].nic.mac1609_4 dot11LongRetryLimit 4
par Scenario.rsu[9].nic.mac1609_4 ackLength 112bit
attr unit bit
par Scenario.rsu[9].nic.mac1609_4 useAcks false
par Scenario.rsu[9].nic.mac1609_4 frameErrorRate 0
par Scenario.rsu[9].nic.mac1609_4 ackErrorRate 0
scalar Scenario.rsu[9].nic.mac1609_4 ReceivedUnicastPackets 0
scalar Scenario.rsu[9].nic.mac1609_4 ReceivedBroadcasts 2
scalar Scenario.rsu[9].nic.mac1609_4 SentPackets 0
scalar Scenario.rsu[9].nic.mac1609_4 SentAcknowledgements 0
scalar Scenario.rsu[9].nic.mac1609_4 RetriesExceeded 0
scalar Scenario.rsu[9].nic.mac1609_4 SNIRLostPackets 4
scalar Scenario.rsu[9].nic.mac1609_4 RXTXLostPackets 0
scalar Scenario.rsu[9].nic.mac1609_4 TotalLostPackets 4
scalar Scenario.rsu[9].nic.mac1609_4 DroppedPacketsInMac 0
scalar Scenario.rsu[9].nic.mac1609_4 TooLittleTime 0
scalar Scenario.rsu[9].nic.mac1609_4 TimesIntoBackoff 0
scalar Scenario.rsu[9].nic.mac1609_4 SlotsBackoff 0
scalar Scenario.rsu[9].nic.mac1609_4 NumInternalContention 0
scalar Scenario.rsu[9].nic.mac1609_4 totalBusyTime 0.000928
scalar Scenario.rsu[9].nic.mac1609_4 retriesExceeded:count 0
attr recordingmode count
attr source org_car2x_veins_modules_mac_sigRetriesExceeded
scalar Scenario.rsu[9].nic.mac1609_4 sentAcks:count 0
attr recordingmode count
attr source org_car2x_veins_modules_mac_sigSentAck
scalar Scenario.rsu[9].nic.mac1609_4 sentPackets:count 0
attr recordingmode count
attr source org_car2x_veins_modules_mac_sigSentPacket
scalar Scenario.rsu[9].nic.mac1609_4 collisions:count 0
attr recordingmode count
attr source org_car2x_veins_modules_mac_sigCollision
scalar Scenario.rsu[9].nic.mac1609_4 channelBusy:timeavg 1.5554268243019e-05
attr recordingmode timeavg
attr source org_car2x_veins_modules_mac_sigChannelBusy
par Scenario.rsu[9].nic typename "\"org.car2x.veins.modules.nic.Nic80211p\""
par Scenario.rsu[9].nic connectionManagerName "\"connectionManager\""
par Scenario.rsu[9].mobility typename "\"org.car2x.veins.base.modules.BaseMobility\""
par Scenario.rsu[9].mobility notAffectedByHostState true
par Scenario.rsu[9].mobility x 9000
par Scenario.rsu[9].mobility y 5500
par Scenario.rsu[9].mobility z 3
par Scenario.rsu[9].mobility xOrientation 1
par Scenario.rsu[9].mobility yOrientation 0
par Scenario.rsu[9].mobility zOrientation 0
par Scenario.rsu[9] typename "\"org.car2x.veins.nodes.RSU\""
par Scenario.rsu[9] applType "\"RSUApplication\""
par Scenario.rsu[9] nicType "\"Nic80211p\""
par Scenario typename "\"iov_sim.examples.iov_sim.Scenario\""
par Scenario playgroundSizeX 12500m
attr unit m
par Scenario playgroundSizeY 7500m
attr unit m
par Scenario playgroundSizeZ 50m
attr unit m
par Scenario n 10

