version 3
run NoLoadSave-0-20230806-02:24:03-7570
attr configname NoLoadSave
attr datetime 20230806-02:24:03
attr datetimef 20230806-022403
attr experiment NoLoadSave
attr inifile omnetpp.ini
attr iterationvars ""
attr iterationvarsd ""
attr iterationvarsf ""
attr measurement ""
attr network Scenario
attr processid 7570
attr repetition 0
attr replication #0
attr resultdir results
attr runnumber 0
attr seedset 0
config image-path ../../images:../../../veins/images
config *.rsu[*].appl.loadModel false
config *.rsu[*].appl.saveModel false
config cmdenv-express-mode true
config cmdenv-autoflush true
config cmdenv-status-frequency 1s
config **.cmdenv-log-level info
config image-path ../../images
config network Scenario
config debug-on-errors true
config print-undisposed true
config sim-time-limit 600s
config **.scalar-recording true
config **.vector-recording true
config *.playgroundSizeX 12500m
config *.playgroundSizeY 7500m
config *.playgroundSizeZ 50m
config *.annotations.draw true
config *.obstacles.obstacles "xmldoc(\"config.xml\", \"//AnalogueModel[@type='SimpleObstacleShadowing']/obstacles\")"
config *.manager.updateInterval 1s
config *.manager.host "\"localhost\""
config *.manager.port 9999
config *.manager.autoShutdown true
config *.manager.launchConfig "xmldoc(\"sumo.launchd.xml\")"
config *.rsu[*].applType "\"RSUApplication\""
config *.rsu[0].appl.policySave "\"fed_p_0\""
config *.rsu[0].appl.valueSave "\"fed_v_0\""
config *.rsu[*].appl.headerLength "80 bit"
config *.rsu[*].appl.sendBeacons false
config *.rsu[*].appl.dataOnSch false
config *.rsu[*].appl.beaconInterval 1s
config *.rsu[*].appl.beaconUserPriority 7
config *.rsu[*].appl.dataUserPriority 5
config *.rsu[*].nic.phy80211p.antennaOffsetZ "0 m"
config *.connectionManager.sendDirect true
config *.connectionManager.maxInterfDist 2600m
config *.connectionManager.drawMaxIntfDist false
config *.**.nic.mac1609_4.useServiceChannel false
config *.**.nic.mac1609_4.txPower 20mW
config *.**.nic.mac1609_4.bitrate 6Mbps
config *.**.nic.phy80211p.minPowerLevel -110dBm
config *.**.nic.phy80211p.useNoiseFloor false
config *.**.nic.phy80211p.noiseFloor -98dBm
config *.**.nic.phy80211p.decider "xmldoc(\"config.xml\")"
config *.**.nic.phy80211p.analogueModels "xmldoc(\"config.xml\")"
config *.**.nic.phy80211p.usePropagationDelay true
config *.**.nic.phy80211p.antenna "xmldoc(\"antenna.xml\", \"/root/Antenna[@id='monopole']\")"
config *.node[*].nic.phy80211p.antennaOffsetY "0 m"
config *.node[*].nic.phy80211p.antennaOffsetZ "1.895 m"
config *.node[*].applType "\"VehicleApplication\""
config *.node[*].appl.headerLength "80 bit"
config *.node[*].appl.sendBeacons false
config *.node[*].appl.dataOnSch false
config *.node[*].appl.beaconInterval 1s
config *.node[*].veinsmobility.x 0
config *.node[*].veinsmobility.y 0
config *.node[*].veinsmobility.z 0
config *.node[*].veinsmobility.setHostSpeed false
config *.node[*0].veinsmobility.accidentCount 1
config *.node[*0].veinsmobility.accidentStart 73s
config *.node[*0].veinsmobility.accidentDuration 50s

par Scenario.node[0].appl typename "\"org.car2x.veins.subprojects.iov_sim.modules.applications.VehicleApplication\""
par Scenario.node[0].appl headerLength 80bit
attr unit bit
par Scenario.node[0].appl sendBeacons false
par Scenario.node[0].appl beaconLengthBits 256bit
attr unit bit
par Scenario.node[0].appl beaconUserPriority 7
par Scenario.node[0].appl beaconInterval 1s
attr unit s
par Scenario.node[0].appl dataLengthBits 1024bit
attr unit bit
par Scenario.node[0].appl dataOnSch false
par Scenario.node[0].appl dataUserPriority 7
par Scenario.node[0].appl avoidBeaconSynchronization true
par Scenario.node[0].appl sendWSA false
par Scenario.node[0].appl wsaLengthBits 250bit
attr unit bit
par Scenario.node[0].appl wsaInterval 1s
attr unit s
par Scenario.node[0].appl appName "\"Vehicle Application\""
par Scenario.node[0].appl clusterBeaconDelay 5
par Scenario.node[0].appl localStepsPerEpoch 5
par Scenario.node[0].appl neighborTableTimeout 30
par Scenario.node[0].appl clusterElectionTimeout 3
par Scenario.node[0].appl clusterHeadTimeout 3
par Scenario.node[0].appl connectivityThreshold 0.6
par Scenario.node[0].appl electionScoreThreshold 0.6
par Scenario.node[0].appl clusterScoreThreshold 0.6
scalar Scenario.node[0].appl generatedWSMs 39
scalar Scenario.node[0].appl receivedWSMs 0
scalar Scenario.node[0].appl generatedBSMs 0
scalar Scenario.node[0].appl receivedBSMs 0
scalar Scenario.node[0].appl generatedWSAs 0
scalar Scenario.node[0].appl receivedWSAs 0
par Scenario.node[0].nic.phy80211p typename "\"org.car2x.veins.modules.phy.PhyLayer80211p\""
par Scenario.node[0].nic.phy80211p recordStats false
par Scenario.node[0].nic.phy80211p usePropagationDelay true
par Scenario.node[0].nic.phy80211p noiseFloor -98dBm
attr unit dBm
par Scenario.node[0].nic.phy80211p useNoiseFloor false
par Scenario.node[0].nic.phy80211p antenna "<Antenna type=\"SampledAntenna1D\" id=\"monopole\">...</Antenna> at /home/chandler/src/iov_sim/examples/iov_sim//antenna.xml:35"
par Scenario.node[0].nic.phy80211p antennaOffsetX 0m
attr unit m
par Scenario.node[0].nic.phy80211p antennaOffsetY 0m
attr unit m
par Scenario.node[0].nic.phy80211p antennaOffsetZ 1.895m
attr unit m
par Scenario.node[0].nic.phy80211p antennaOffsetYaw 0rad
attr unit rad
par Scenario.node[0].nic.phy80211p analogueModels "<root>...</root> at /home/chandler/src/iov_sim/examples/iov_sim//config.xml:34"
par Scenario.node[0].nic.phy80211p decider "<root>...</root> at /home/chandler/src/iov_sim/examples/iov_sim//config.xml:34"
par Scenario.node[0].nic.phy80211p minPowerLevel -110dBm
attr unit dBm
par Scenario.node[0].nic.phy80211p timeRXToTX 0s
attr unit s
par Scenario.node[0].nic.phy80211p timeRXToSleep 0s
attr unit s
par Scenario.node[0].nic.phy80211p timeTXToRX 0s
attr unit s
par Scenario.node[0].nic.phy80211p timeTXToSleep 0s
attr unit s
par Scenario.node[0].nic.phy80211p timeSleepToRX 0s
attr unit s
par Scenario.node[0].nic.phy80211p timeSleepToTX 0s
attr unit s
par Scenario.node[0].nic.phy80211p initialRadioState 0
par Scenario.node[0].nic.phy80211p radioMinAtt 1
par Scenario.node[0].nic.phy80211p radioMaxAtt 0
par Scenario.node[0].nic.phy80211p nbRadioChannels 1
par Scenario.node[0].nic.phy80211p initialRadioChannel 0
par Scenario.node[0].nic.phy80211p ccaThreshold -65dBm
attr unit dBm
par Scenario.node[0].nic.phy80211p collectCollisionStatistics false
par Scenario.node[0].nic.phy80211p allowTxDuringRx false
scalar Scenario.node[0].nic.phy80211p busyTime 0.0010907462686567
par Scenario.node[0].nic.mac1609_4 typename "\"org.car2x.veins.modules.mac.ieee80211p.Mac1609_4\""
par Scenario.node[0].nic.mac1609_4 notAffectedByHostState false
par Scenario.node[0].nic.mac1609_4 headerLength 0bit
attr unit bit
par Scenario.node[0].nic.mac1609_4 address "\"auto\""
par Scenario.node[0].nic.mac1609_4 useServiceChannel false
par Scenario.node[0].nic.mac1609_4 serviceChannel 1
par Scenario.node[0].nic.mac1609_4 bitrate 6000000bps
attr unit bps
par Scenario.node[0].nic.mac1609_4 syncOffset 0.0003s
attr unit s
par Scenario.node[0].nic.mac1609_4 txPower 20mW
attr unit mW
par Scenario.node[0].nic.mac1609_4 queueSize 0
par Scenario.node[0].nic.mac1609_4 dot11RTSThreshold 12000bit
attr unit bit
par Scenario.node[0].nic.mac1609_4 dot11ShortRetryLimit 7
par Scenario.node[0].nic.mac1609_4 dot11LongRetryLimit 4
par Scenario.node[0].nic.mac1609_4 ackLength 112bit
attr unit bit
par Scenario.node[0].nic.mac1609_4 useAcks false
par Scenario.node[0].nic.mac1609_4 frameErrorRate 0
par Scenario.node[0].nic.mac1609_4 ackErrorRate 0
scalar Scenario.node[0].nic.mac1609_4 ReceivedUnicastPackets 0
scalar Scenario.node[0].nic.mac1609_4 ReceivedBroadcasts 244
scalar Scenario.node[0].nic.mac1609_4 SentPackets 39
scalar Scenario.node[0].nic.mac1609_4 SentAcknowledgements 0
scalar Scenario.node[0].nic.mac1609_4 RetriesExceeded 0
scalar Scenario.node[0].nic.mac1609_4 SNIRLostPackets 71
scalar Scenario.node[0].nic.mac1609_4 RXTXLostPackets 12
scalar Scenario.node[0].nic.mac1609_4 TotalLostPackets 83
scalar Scenario.node[0].nic.mac1609_4 DroppedPacketsInMac 0
scalar Scenario.node[0].nic.mac1609_4 TooLittleTime 0
scalar Scenario.node[0].nic.mac1609_4 TimesIntoBackoff 39
scalar Scenario.node[0].nic.mac1609_4 SlotsBackoff 54
scalar Scenario.node[0].nic.mac1609_4 NumInternalContention 0
scalar Scenario.node[0].nic.mac1609_4 totalBusyTime 0.071031
scalar Scenario.node[0].nic.mac1609_4 retriesExceeded:count 0
attr moduledisplaypath "Scenario.electing CH. src: node[44].nic.mac1609_4"
attr recordingmode count
attr source org_car2x_veins_modules_mac_sigRetriesExceeded
scalar Scenario.node[0].nic.mac1609_4 sentAcks:count 0
attr moduledisplaypath "Scenario.electing CH. src: node[44].nic.mac1609_4"
attr recordingmode count
attr source org_car2x_veins_modules_mac_sigSentAck
scalar Scenario.node[0].nic.mac1609_4 sentPackets:count 39
attr moduledisplaypath "Scenario.electing CH. src: node[44].nic.mac1609_4"
attr recordingmode count
attr source org_car2x_veins_modules_mac_sigSentPacket
scalar Scenario.node[0].nic.mac1609_4 collisions:count 0
attr moduledisplaypath "Scenario.electing CH. src: node[44].nic.mac1609_4"
attr recordingmode count
attr source org_car2x_veins_modules_mac_sigCollision
scalar Scenario.node[0].nic.mac1609_4 channelBusy:timeavg 0.0010601641791045
attr moduledisplaypath "Scenario.electing CH. src: node[44].nic.mac1609_4"
attr recordingmode timeavg
attr source org_car2x_veins_modules_mac_sigChannelBusy
par Scenario.node[0].nic typename "\"org.car2x.veins.modules.nic.Nic80211p\""
par Scenario.node[0].nic connectionManagerName "\"connectionManager\""
par Scenario.node[0].veinsmobility typename "\"org.car2x.veins.modules.mobility.traci.TraCIMobility\""
par Scenario.node[0].veinsmobility notAffectedByHostState true
par Scenario.node[0].veinsmobility x 0
par Scenario.node[0].veinsmobility y 0
par Scenario.node[0].veinsmobility z 0
par Scenario.node[0].veinsmobility xOrientation 1
par Scenario.node[0].veinsmobility yOrientation 0
par Scenario.node[0].veinsmobility zOrientation 0
par Scenario.node[0].veinsmobility hostPositionOffset 0m
attr unit m
par Scenario.node[0].veinsmobility setHostSpeed false
par Scenario.node[0].veinsmobility accidentCount 1
par Scenario.node[0].veinsmobility accidentStart 73s
attr unit s
par Scenario.node[0].veinsmobility accidentDuration 50s
attr unit s
par Scenario.node[0].veinsmobility accidentInterval "uniform(30s, 60s)"
attr unit s
scalar Scenario.node[0].veinsmobility startTime 1
scalar Scenario.node[0].veinsmobility totalTime 66
scalar Scenario.node[0].veinsmobility stopTime 68
scalar Scenario.node[0].veinsmobility minSpeed 3.7178716257677
scalar Scenario.node[0].veinsmobility maxSpeed 15.493526366323
scalar Scenario.node[0].veinsmobility totalDistance 840.22997539871
scalar Scenario.node[0].veinsmobility totalCO2Emission 206.16508959913
par Scenario.node[0] typename "\"org.car2x.veins.nodes.Car\""
par Scenario.node[0] applType "\"VehicleApplication\""
par Scenario.node[0] nicType "\"Nic80211p\""
par Scenario.node[0] veinsmobilityType "\"org.car2x.veins.modules.mobility.traci.TraCIMobility\""
par Scenario.node[12].appl typename "\"org.car2x.veins.subprojects.iov_sim.modules.applications.VehicleApplication\""
par Scenario.node[12].appl headerLength 80bit
attr unit bit
par Scenario.node[12].appl sendBeacons false
par Scenario.node[12].appl beaconLengthBits 256bit
attr unit bit
par Scenario.node[12].appl beaconUserPriority 7
par Scenario.node[12].appl beaconInterval 1s
attr unit s
par Scenario.node[12].appl dataLengthBits 1024bit
attr unit bit
par Scenario.node[12].appl dataOnSch false
par Scenario.node[12].appl dataUserPriority 7
par Scenario.node[12].appl avoidBeaconSynchronization true
par Scenario.node[12].appl sendWSA false
par Scenario.node[12].appl wsaLengthBits 250bit
attr unit bit
par Scenario.node[12].appl wsaInterval 1s
attr unit s
par Scenario.node[12].appl appName "\"Vehicle Application\""
par Scenario.node[12].appl clusterBeaconDelay 5
par Scenario.node[12].appl localStepsPerEpoch 5
par Scenario.node[12].appl neighborTableTimeout 30
par Scenario.node[12].appl clusterElectionTimeout 3
par Scenario.node[12].appl clusterHeadTimeout 3
par Scenario.node[12].appl connectivityThreshold 0.6
par Scenario.node[12].appl electionScoreThreshold 0.6
par Scenario.node[12].appl clusterScoreThreshold 0.6
scalar Scenario.node[12].appl generatedWSMs 45
scalar Scenario.node[12].appl receivedWSMs 0
scalar Scenario.node[12].appl generatedBSMs 0
scalar Scenario.node[12].appl receivedBSMs 0
scalar Scenario.node[12].appl generatedWSAs 0
scalar Scenario.node[12].appl receivedWSAs 0
par Scenario.node[12].nic.phy80211p typename "\"org.car2x.veins.modules.phy.PhyLayer80211p\""
par Scenario.node[12].nic.phy80211p recordStats false
par Scenario.node[12].nic.phy80211p usePropagationDelay true
par Scenario.node[12].nic.phy80211p noiseFloor -98dBm
attr unit dBm
par Scenario.node[12].nic.phy80211p useNoiseFloor false
par Scenario.node[12].nic.phy80211p antenna "<Antenna type=\"SampledAntenna1D\" id=\"monopole\">...</Antenna> at /home/chandler/src/iov_sim/examples/iov_sim//antenna.xml:35"
par Scenario.node[12].nic.phy80211p antennaOffsetX 0m
attr unit m
par Scenario.node[12].nic.phy80211p antennaOffsetY 0m
attr unit m
par Scenario.node[12].nic.phy80211p antennaOffsetZ 1.895m
attr unit m
par Scenario.node[12].nic.phy80211p antennaOffsetYaw 0rad
attr unit rad
par Scenario.node[12].nic.phy80211p analogueModels "<root>...</root> at /home/chandler/src/iov_sim/examples/iov_sim//config.xml:34"
par Scenario.node[12].nic.phy80211p decider "<root>...</root> at /home/chandler/src/iov_sim/examples/iov_sim//config.xml:34"
par Scenario.node[12].nic.phy80211p minPowerLevel -110dBm
attr unit dBm
par Scenario.node[12].nic.phy80211p timeRXToTX 0s
attr unit s
par Scenario.node[12].nic.phy80211p timeRXToSleep 0s
attr unit s
par Scenario.node[12].nic.phy80211p timeTXToRX 0s
attr unit s
par Scenario.node[12].nic.phy80211p timeTXToSleep 0s
attr unit s
par Scenario.node[12].nic.phy80211p timeSleepToRX 0s
attr unit s
par Scenario.node[12].nic.phy80211p timeSleepToTX 0s
attr unit s
par Scenario.node[12].nic.phy80211p initialRadioState 0
par Scenario.node[12].nic.phy80211p radioMinAtt 1
par Scenario.node[12].nic.phy80211p radioMaxAtt 0
par Scenario.node[12].nic.phy80211p nbRadioChannels 1
par Scenario.node[12].nic.phy80211p initialRadioChannel 0
par Scenario.node[12].nic.phy80211p ccaThreshold -65dBm
attr unit dBm
par Scenario.node[12].nic.phy80211p collectCollisionStatistics false
par Scenario.node[12].nic.phy80211p allowTxDuringRx false
scalar Scenario.node[12].nic.phy80211p busyTime 0.00054632258064516
par Scenario.node[12].nic.mac1609_4 typename "\"org.car2x.veins.modules.mac.ieee80211p.Mac1609_4\""
par Scenario.node[12].nic.mac1609_4 notAffectedByHostState false
par Scenario.node[12].nic.mac1609_4 headerLength 0bit
attr unit bit
par Scenario.node[12].nic.mac1609_4 address "\"auto\""
par Scenario.node[12].nic.mac1609_4 useServiceChannel false
par Scenario.node[12].nic.mac1609_4 serviceChannel 1
par Scenario.node[12].nic.mac1609_4 bitrate 6000000bps
attr unit bps
par Scenario.node[12].nic.mac1609_4 syncOffset 0.0003s
attr unit s
par Scenario.node[12].nic.mac1609_4 txPower 20mW
attr unit mW
par Scenario.node[12].nic.mac1609_4 queueSize 0
par Scenario.node[12].nic.mac1609_4 dot11RTSThreshold 12000bit
attr unit bit
par Scenario.node[12].nic.mac1609_4 dot11ShortRetryLimit 7
par Scenario.node[12].nic.mac1609_4 dot11LongRetryLimit 4
par Scenario.node[12].nic.mac1609_4 ackLength 112bit
attr unit bit
par Scenario.node[12].nic.mac1609_4 useAcks false
par Scenario.node[12].nic.mac1609_4 frameErrorRate 0
par Scenario.node[12].nic.mac1609_4 ackErrorRate 0
scalar Scenario.node[12].nic.mac1609_4 ReceivedUnicastPackets 0
scalar Scenario.node[12].nic.mac1609_4 ReceivedBroadcasts 108
scalar Scenario.node[12].nic.mac1609_4 SentPackets 45
scalar Scenario.node[12].nic.mac1609_4 SentAcknowledgements 0
scalar Scenario.node[12].nic.mac1609_4 RetriesExceeded 0
scalar Scenario.node[12].nic.mac1609_4 SNIRLostPackets 38
scalar Scenario.node[12].nic.mac1609_4 RXTXLostPackets 15
scalar Scenario.node[12].nic.mac1609_4 TotalLostPackets 53
scalar Scenario.node[12].nic.mac1609_4 DroppedPacketsInMac 0
scalar Scenario.node[12].nic.mac1609_4 TooLittleTime 0
scalar Scenario.node[12].nic.mac1609_4 TimesIntoBackoff 45
scalar Scenario.node[12].nic.mac1609_4 SlotsBackoff 58
scalar Scenario.node[12].nic.mac1609_4 NumInternalContention 0
scalar Scenario.node[12].nic.mac1609_4 totalBusyTime 0.038093
scalar Scenario.node[12].nic.mac1609_4 retriesExceeded:count 0
attr moduledisplaypath "Scenario.electing CH src...nic.mac1609_4"
attr recordingmode count
attr source org_car2x_veins_modules_mac_sigRetriesExceeded
scalar Scenario.node[12].nic.mac1609_4 sentAcks:count 0
attr moduledisplaypath "Scenario.electing CH src...nic.mac1609_4"
attr recordingmode count
attr source org_car2x_veins_modules_mac_sigSentAck
scalar Scenario.node[12].nic.mac1609_4 sentPackets:count 45
attr moduledisplaypath "Scenario.electing CH src...nic.mac1609_4"
attr recordingmode count
attr source org_car2x_veins_modules_mac_sigSentPacket
scalar Scenario.node[12].nic.mac1609_4 collisions:count 0
attr moduledisplaypath "Scenario.electing CH src...nic.mac1609_4"
attr recordingmode count
attr source org_car2x_veins_modules_mac_sigCollision
scalar Scenario.node[12].nic.mac1609_4 channelBusy:timeavg 0.00061440322580645
attr moduledisplaypath "Scenario.electing CH src...nic.mac1609_4"
attr recordingmode timeavg
attr source org_car2x_veins_modules_mac_sigChannelBusy
par Scenario.node[12].nic typename "\"org.car2x.veins.modules.nic.Nic80211p\""
par Scenario.node[12].nic connectionManagerName "\"connectionManager\""
par Scenario.node[12].veinsmobility typename "\"org.car2x.veins.modules.mobility.traci.TraCIMobility\""
par Scenario.node[12].veinsmobility notAffectedByHostState true
par Scenario.node[12].veinsmobility x 0
par Scenario.node[12].veinsmobility y 0
par Scenario.node[12].veinsmobility z 0
par Scenario.node[12].veinsmobility xOrientation 1
par Scenario.node[12].veinsmobility yOrientation 0
par Scenario.node[12].veinsmobility zOrientation 0
par Scenario.node[12].veinsmobility hostPositionOffset 0m
attr unit m
par Scenario.node[12].veinsmobility setHostSpeed false
par Scenario.node[12].veinsmobility accidentCount 0
par Scenario.node[12].veinsmobility accidentStart 56.8964s
attr unit s
par Scenario.node[12].veinsmobility accidentDuration "uniform(30s, 60s)"
attr unit s
par Scenario.node[12].veinsmobility accidentInterval "uniform(30s, 60s)"
attr unit s
scalar Scenario.node[12].veinsmobility startTime 7
scalar Scenario.node[12].veinsmobility totalTime 61
scalar Scenario.node[12].veinsmobility stopTime 69
scalar Scenario.node[12].veinsmobility minSpeed 1.5165522359312
scalar Scenario.node[12].veinsmobility maxSpeed 19.469979780959
scalar Scenario.node[12].veinsmobility totalDistance 661.0228461436
scalar Scenario.node[12].veinsmobility totalCO2Emission 217.88968401311
par Scenario.node[12] typename "\"org.car2x.veins.nodes.Car\""
par Scenario.node[12] applType "\"VehicleApplication\""
par Scenario.node[12] nicType "\"Nic80211p\""
par Scenario.node[12] veinsmobilityType "\"org.car2x.veins.modules.mobility.traci.TraCIMobility\""
par Scenario.node[90].appl typename "\"org.car2x.veins.subprojects.iov_sim.modules.applications.VehicleApplication\""
par Scenario.node[90].appl headerLength 80bit
attr unit bit
par Scenario.node[90].appl sendBeacons false
par Scenario.node[90].appl beaconLengthBits 256bit
attr unit bit
par Scenario.node[90].appl beaconUserPriority 7
par Scenario.node[90].appl beaconInterval 1s
attr unit s
par Scenario.node[90].appl dataLengthBits 1024bit
attr unit bit
par Scenario.node[90].appl dataOnSch false
par Scenario.node[90].appl dataUserPriority 7
par Scenario.node[90].appl avoidBeaconSynchronization true
par Scenario.node[90].appl sendWSA false
par Scenario.node[90].appl wsaLengthBits 250bit
attr unit bit
par Scenario.node[90].appl wsaInterval 1s
attr unit s
par Scenario.node[90].appl appName "\"Vehicle Application\""
par Scenario.node[90].appl clusterBeaconDelay 5
par Scenario.node[90].appl localStepsPerEpoch 5
par Scenario.node[90].appl neighborTableTimeout 30
par Scenario.node[90].appl clusterElectionTimeout 3
par Scenario.node[90].appl clusterHeadTimeout 3
par Scenario.node[90].appl connectivityThreshold 0.6
par Scenario.node[90].appl electionScoreThreshold 0.6
par Scenario.node[90].appl clusterScoreThreshold 0.6
scalar Scenario.node[90].appl generatedWSMs 69
scalar Scenario.node[90].appl receivedWSMs 0
scalar Scenario.node[90].appl generatedBSMs 0
scalar Scenario.node[90].appl receivedBSMs 0
scalar Scenario.node[90].appl generatedWSAs 0
scalar Scenario.node[90].appl receivedWSAs 0
par Scenario.node[90].nic.phy80211p typename "\"org.car2x.veins.modules.phy.PhyLayer80211p\""
par Scenario.node[90].nic.phy80211p recordStats false
par Scenario.node[90].nic.phy80211p usePropagationDelay true
par Scenario.node[90].nic.phy80211p noiseFloor -98dBm
attr unit dBm
par Scenario.node[90].nic.phy80211p useNoiseFloor false
par Scenario.node[90].nic.phy80211p antenna "<Antenna type=\"SampledAntenna1D\" id=\"monopole\">...</Antenna> at /home/chandler/src/iov_sim/examples/iov_sim//antenna.xml:35"
par Scenario.node[90].nic.phy80211p antennaOffsetX 0m
attr unit m
par Scenario.node[90].nic.phy80211p antennaOffsetY 0m
attr unit m
par Scenario.node[90].nic.phy80211p antennaOffsetZ 1.895m
attr unit m
par Scenario.node[90].nic.phy80211p antennaOffsetYaw 0rad
attr unit rad
par Scenario.node[90].nic.phy80211p analogueModels "<root>...</root> at /home/chandler/src/iov_sim/examples/iov_sim//config.xml:34"
par Scenario.node[90].nic.phy80211p decider "<root>...</root> at /home/chandler/src/iov_sim/examples/iov_sim//config.xml:34"
par Scenario.node[90].nic.phy80211p minPowerLevel -110dBm
attr unit dBm
par Scenario.node[90].nic.phy80211p timeRXToTX 0s
attr unit s
par Scenario.node[90].nic.phy80211p timeRXToSleep 0s
attr unit s
par Scenario.node[90].nic.phy80211p timeTXToRX 0s
attr unit s
par Scenario.node[90].nic.phy80211p timeTXToSleep 0s
attr unit s
par Scenario.node[90].nic.phy80211p timeSleepToRX 0s
attr unit s
par Scenario.node[90].nic.phy80211p timeSleepToTX 0s
attr unit s
par Scenario.node[90].nic.phy80211p initialRadioState 0
par Scenario.node[90].nic.phy80211p radioMinAtt 1
par Scenario.node[90].nic.phy80211p radioMaxAtt 0
par Scenario.node[90].nic.phy80211p nbRadioChannels 1
par Scenario.node[90].nic.phy80211p initialRadioChannel 0
par Scenario.node[90].nic.phy80211p ccaThreshold -65dBm
attr unit dBm
par Scenario.node[90].nic.phy80211p collectCollisionStatistics false
par Scenario.node[90].nic.phy80211p allowTxDuringRx false
scalar Scenario.node[90].nic.phy80211p busyTime 0.0038346285714286
par Scenario.node[90].nic.mac1609_4 typename "\"org.car2x.veins.modules.mac.ieee80211p.Mac1609_4\""
par Scenario.node[90].nic.mac1609_4 notAffectedByHostState false
par Scenario.node[90].nic.mac1609_4 headerLength 0bit
attr unit bit
par Scenario.node[90].nic.mac1609_4 address "\"auto\""
par Scenario.node[90].nic.mac1609_4 useServiceChannel false
par Scenario.node[90].nic.mac1609_4 serviceChannel 1
par Scenario.node[90].nic.mac1609_4 bitrate 6000000bps
attr unit bps
par Scenario.node[90].nic.mac1609_4 syncOffset 0.0003s
attr unit s
par Scenario.node[90].nic.mac1609_4 txPower 20mW
attr unit mW
par Scenario.node[90].nic.mac1609_4 queueSize 0
par Scenario.node[90].nic.mac1609_4 dot11RTSThreshold 12000bit
attr unit bit
par Scenario.node[90].nic.mac1609_4 dot11ShortRetryLimit 7
par Scenario.node[90].nic.mac1609_4 dot11LongRetryLimit 4
par Scenario.node[90].nic.mac1609_4 ackLength 112bit
attr unit bit
par Scenario.node[90].nic.mac1609_4 useAcks false
par Scenario.node[90].nic.mac1609_4 frameErrorRate 0
par Scenario.node[90].nic.mac1609_4 ackErrorRate 0
scalar Scenario.node[90].nic.mac1609_4 ReceivedUnicastPackets 0
scalar Scenario.node[90].nic.mac1609_4 ReceivedBroadcasts 718
scalar Scenario.node[90].nic.mac1609_4 SentPackets 69
scalar Scenario.node[90].nic.mac1609_4 SentAcknowledgements 0
scalar Scenario.node[90].nic.mac1609_4 RetriesExceeded 0
scalar Scenario.node[90].nic.mac1609_4 SNIRLostPackets 439
scalar Scenario.node[90].nic.mac1609_4 RXTXLostPackets 398
scalar Scenario.node[90].nic.mac1609_4 TotalLostPackets 837
scalar Scenario.node[90].nic.mac1609_4 DroppedPacketsInMac 0
scalar Scenario.node[90].nic.mac1609_4 TooLittleTime 0
scalar Scenario.node[90].nic.mac1609_4 TimesIntoBackoff 69
scalar Scenario.node[90].nic.mac1609_4 SlotsBackoff 118
scalar Scenario.node[90].nic.mac1609_4 NumInternalContention 0
scalar Scenario.node[90].nic.mac1609_4 totalBusyTime 0.198893
scalar Scenario.node[90].nic.mac1609_4 retriesExceeded:count 0
attr recordingmode count
attr source org_car2x_veins_modules_mac_sigRetriesExceeded
scalar Scenario.node[90].nic.mac1609_4 sentAcks:count 0
attr recordingmode count
attr source org_car2x_veins_modules_mac_sigSentAck
scalar Scenario.node[90].nic.mac1609_4 sentPackets:count 69
attr recordingmode count
attr source org_car2x_veins_modules_mac_sigSentPacket
scalar Scenario.node[90].nic.mac1609_4 collisions:count 0
attr recordingmode count
attr source org_car2x_veins_modules_mac_sigCollision
scalar Scenario.node[90].nic.mac1609_4 channelBusy:timeavg 0.0028413285714286
attr recordingmode timeavg
attr source org_car2x_veins_modules_mac_sigChannelBusy
par Scenario.node[90].nic typename "\"org.car2x.veins.modules.nic.Nic80211p\""
par Scenario.node[90].nic connectionManagerName "\"connectionManager\""
par Scenario.node[90].veinsmobility typename "\"org.car2x.veins.modules.mobility.traci.TraCIMobility\""
par Scenario.node[90].veinsmobility notAffectedByHostState true
par Scenario.node[90].veinsmobility x 0
par Scenario.node[90].veinsmobility y 0
par Scenario.node[90].veinsmobility z 0
par Scenario.node[90].veinsmobility xOrientation 1
par Scenario.node[90].veinsmobility yOrientation 0
par Scenario.node[90].veinsmobility zOrientation 0
par Scenario.node[90].veinsmobility hostPositionOffset 0m
attr unit m
par Scenario.node[90].veinsmobility setHostSpeed false
par Scenario.node[90].veinsmobility accidentCount 1
par Scenario.node[90].veinsmobility accidentStart 73s
attr unit s
par Scenario.node[90].veinsmobility accidentDuration 50s
attr unit s
par Scenario.node[90].veinsmobility accidentInterval "uniform(30s, 60s)"
attr unit s
scalar Scenario.node[90].veinsmobility startTime 41
scalar Scenario.node[90].veinsmobility totalTime 69
scalar Scenario.node[90].veinsmobility stopTime 111
scalar Scenario.node[90].veinsmobility minSpeed 1.7972740404308
scalar Scenario.node[90].veinsmobility maxSpeed 31.231053368811
scalar Scenario.node[90].veinsmobility totalDistance 1006.8270379064
scalar Scenario.node[90].veinsmobility totalCO2Emission 351.03705985234
par Scenario.node[90] typename "\"org.car2x.veins.nodes.Car\""
par Scenario.node[90] applType "\"VehicleApplication\""
par Scenario.node[90] nicType "\"Nic80211p\""
par Scenario.node[90] veinsmobilityType "\"org.car2x.veins.modules.mobility.traci.TraCIMobility\""
par Scenario.node[57].appl typename "\"org.car2x.veins.subprojects.iov_sim.modules.applications.VehicleApplication\""
par Scenario.node[57].appl headerLength 80bit
attr unit bit
par Scenario.node[57].appl sendBeacons false
par Scenario.node[57].appl beaconLengthBits 256bit
attr unit bit
par Scenario.node[57].appl beaconUserPriority 7
par Scenario.node[57].appl beaconInterval 1s
attr unit s
par Scenario.node[57].appl dataLengthBits 1024bit
attr unit bit
par Scenario.node[57].appl dataOnSch false
par Scenario.node[57].appl dataUserPriority 7
par Scenario.node[57].appl avoidBeaconSynchronization true
par Scenario.node[57].appl sendWSA false
par Scenario.node[57].appl wsaLengthBits 250bit
attr unit bit
par Scenario.node[57].appl wsaInterval 1s
attr unit s
par Scenario.node[57].appl appName "\"Vehicle Application\""
par Scenario.node[57].appl clusterBeaconDelay 5
par Scenario.node[57].appl localStepsPerEpoch 5
par Scenario.node[57].appl neighborTableTimeout 30
par Scenario.node[57].appl clusterElectionTimeout 3
par Scenario.node[57].appl clusterHeadTimeout 3
par Scenario.node[57].appl connectivityThreshold 0.6
par Scenario.node[57].appl electionScoreThreshold 0.6
par Scenario.node[57].appl clusterScoreThreshold 0.6
scalar Scenario.node[57].appl generatedWSMs 81
scalar Scenario.node[57].appl receivedWSMs 0
scalar Scenario.node[57].appl generatedBSMs 0
scalar Scenario.node[57].appl receivedBSMs 0
scalar Scenario.node[57].appl generatedWSAs 0
scalar Scenario.node[57].appl receivedWSAs 0
par Scenario.node[57].nic.phy80211p typename "\"org.car2x.veins.modules.phy.PhyLayer80211p\""
par Scenario.node[57].nic.phy80211p recordStats false
par Scenario.node[57].nic.phy80211p usePropagationDelay true
par Scenario.node[57].nic.phy80211p noiseFloor -98dBm
attr unit dBm
par Scenario.node[57].nic.phy80211p useNoiseFloor false
par Scenario.node[57].nic.phy80211p antenna "<Antenna type=\"SampledAntenna1D\" id=\"monopole\">...</Antenna> at /home/chandler/src/iov_sim/examples/iov_sim//antenna.xml:35"
par Scenario.node[57].nic.phy80211p antennaOffsetX 0m
attr unit m
par Scenario.node[57].nic.phy80211p antennaOffsetY 0m
attr unit m
par Scenario.node[57].nic.phy80211p antennaOffsetZ 1.895m
attr unit m
par Scenario.node[57].nic.phy80211p antennaOffsetYaw 0rad
attr unit rad
par Scenario.node[57].nic.phy80211p analogueModels "<root>...</root> at /home/chandler/src/iov_sim/examples/iov_sim//config.xml:34"
par Scenario.node[57].nic.phy80211p decider "<root>...</root> at /home/chandler/src/iov_sim/examples/iov_sim//config.xml:34"
par Scenario.node[57].nic.phy80211p minPowerLevel -110dBm
attr unit dBm
par Scenario.node[57].nic.phy80211p timeRXToTX 0s
attr unit s
par Scenario.node[57].nic.phy80211p timeRXToSleep 0s
attr unit s
par Scenario.node[57].nic.phy80211p timeTXToRX 0s
attr unit s
par Scenario.node[57].nic.phy80211p timeTXToSleep 0s
attr unit s
par Scenario.node[57].nic.phy80211p timeSleepToRX 0s
attr unit s
par Scenario.node[57].nic.phy80211p timeSleepToTX 0s
attr unit s
par Scenario.node[57].nic.phy80211p initialRadioState 0
par Scenario.node[57].nic.phy80211p radioMinAtt 1
par Scenario.node[57].nic.phy80211p radioMaxAtt 0
par Scenario.node[57].nic.phy80211p nbRadioChannels 1
par Scenario.node[57].nic.phy80211p initialRadioChannel 0
par Scenario.node[57].nic.phy80211p ccaThreshold -65dBm
attr unit dBm
par Scenario.node[57].nic.phy80211p collectCollisionStatistics false
par Scenario.node[57].nic.phy80211p allowTxDuringRx false
scalar Scenario.node[57].nic.phy80211p busyTime 0.0047362553191491
par Scenario.node[57].nic.mac1609_4 typename "\"org.car2x.veins.modules.mac.ieee80211p.Mac1609_4\""
par Scenario.node[57].nic.mac1609_4 notAffectedByHostState false
par Scenario.node[57].nic.mac1609_4 headerLength 0bit
attr unit bit
par Scenario.node[57].nic.mac1609_4 address "\"auto\""
par Scenario.node[57].nic.mac1609_4 useServiceChannel false
par Scenario.node[57].nic.mac1609_4 serviceChannel 1
par Scenario.node[57].nic.mac1609_4 bitrate 6000000bps
attr unit bps
par Scenario.node[57].nic.mac1609_4 syncOffset 0.0003s
attr unit s
par Scenario.node[57].nic.mac1609_4 txPower 20mW
attr unit mW
par Scenario.node[57].nic.mac1609_4 queueSize 0
par Scenario.node[57].nic.mac1609_4 dot11RTSThreshold 12000bit
attr unit bit
par Scenario.node[57].nic.mac1609_4 dot11ShortRetryLimit 7
par Scenario.node[57].nic.mac1609_4 dot11LongRetryLimit 4
par Scenario.node[57].nic.mac1609_4 ackLength 112bit
attr unit bit
par Scenario.node[57].nic.mac1609_4 useAcks false
par Scenario.node[57].nic.mac1609_4 frameErrorRate 0
par Scenario.node[57].nic.mac1609_4 ackErrorRate 0
scalar Scenario.node[57].nic.mac1609_4 ReceivedUnicastPackets 0
scalar Scenario.node[57].nic.mac1609_4 ReceivedBroadcasts 1067
scalar Scenario.node[57].nic.mac1609_4 SentPackets 81
scalar Scenario.node[57].nic.mac1609_4 SentAcknowledgements 0
scalar Scenario.node[57].nic.mac1609_4 RetriesExceeded 0
scalar Scenario.node[57].nic.mac1609_4 SNIRLostPackets 852
scalar Scenario.node[57].nic.mac1609_4 RXTXLostPackets 418
scalar Scenario.node[57].nic.mac1609_4 TotalLostPackets 1270
scalar Scenario.node[57].nic.mac1609_4 DroppedPacketsInMac 0
scalar Scenario.node[57].nic.mac1609_4 TooLittleTime 0
scalar Scenario.node[57].nic.mac1609_4 TimesIntoBackoff 83
scalar Scenario.node[57].nic.mac1609_4 SlotsBackoff 115
scalar Scenario.node[57].nic.mac1609_4 NumInternalContention 0
scalar Scenario.node[57].nic.mac1609_4 totalBusyTime 0.301217
scalar Scenario.node[57].nic.mac1609_4 retriesExceeded:count 0
attr moduledisplaypath "Scenario.electing CH. src: node[135].nic.mac1609_4"
attr recordingmode count
attr source org_car2x_veins_modules_mac_sigRetriesExceeded
scalar Scenario.node[57].nic.mac1609_4 sentAcks:count 0
attr moduledisplaypath "Scenario.electing CH. src: node[135].nic.mac1609_4"
attr recordingmode count
attr source org_car2x_veins_modules_mac_sigSentAck
scalar Scenario.node[57].nic.mac1609_4 sentPackets:count 81
attr moduledisplaypath "Scenario.electing CH. src: node[135].nic.mac1609_4"
attr recordingmode count
attr source org_car2x_veins_modules_mac_sigSentPacket
scalar Scenario.node[57].nic.mac1609_4 collisions:count 0
attr moduledisplaypath "Scenario.electing CH. src: node[135].nic.mac1609_4"
attr recordingmode count
attr source org_car2x_veins_modules_mac_sigCollision
scalar Scenario.node[57].nic.mac1609_4 channelBusy:timeavg 0.0032044361702128
attr moduledisplaypath "Scenario.electing CH. src: node[135].nic.mac1609_4"
attr recordingmode timeavg
attr source org_car2x_veins_modules_mac_sigChannelBusy
par Scenario.node[57].nic typename "\"org.car2x.veins.modules.nic.Nic80211p\""
par Scenario.node[57].nic connectionManagerName "\"connectionManager\""
par Scenario.node[57].veinsmobility typename "\"org.car2x.veins.modules.mobility.traci.TraCIMobility\""
par Scenario.node[57].veinsmobility notAffectedByHostState true
par Scenario.node[57].veinsmobility x 0
par Scenario.node[57].veinsmobility y 0
par Scenario.node[57].veinsmobility z 0
par Scenario.node[57].veinsmobility xOrientation 1
par Scenario.node[57].veinsmobility yOrientation 0
par Scenario.node[57].veinsmobility zOrientation 0
par Scenario.node[57].veinsmobility hostPositionOffset 0m
attr unit m
par Scenario.node[57].veinsmobility setHostSpeed false
par Scenario.node[57].veinsmobility accidentCount 0
par Scenario.node[57].veinsmobility accidentStart 39.9545s
attr unit s
par Scenario.node[57].veinsmobility accidentDuration "uniform(30s, 60s)"
attr unit s
par Scenario.node[57].veinsmobility accidentInterval "uniform(30s, 60s)"
attr unit s
scalar Scenario.node[57].veinsmobility startTime 27
scalar Scenario.node[57].veinsmobility totalTime 93
scalar Scenario.node[57].veinsmobility stopTime 121
scalar Scenario.node[57].veinsmobility minSpeed 2.0072538219159
scalar Scenario.node[57].veinsmobility maxSpeed 33.874932
scalar Scenario.node[57].veinsmobility totalDistance 2053.0639603884
scalar Scenario.node[57].veinsmobility totalCO2Emission 671.00196905434
par Scenario.node[57] typename "\"org.car2x.veins.nodes.Car\""
par Scenario.node[57] applType "\"VehicleApplication\""
par Scenario.node[57] nicType "\"Nic80211p\""
par Scenario.node[57] veinsmobilityType "\"org.car2x.veins.modules.mobility.traci.TraCIMobility\""
par Scenario.node[25].appl typename "\"org.car2x.veins.subprojects.iov_sim.modules.applications.VehicleApplication\""
par Scenario.node[25].appl headerLength 80bit
attr unit bit
par Scenario.node[25].appl sendBeacons false
par Scenario.node[25].appl beaconLengthBits 256bit
attr unit bit
par Scenario.node[25].appl beaconUserPriority 7
par Scenario.node[25].appl beaconInterval 1s
attr unit s
par Scenario.node[25].appl dataLengthBits 1024bit
attr unit bit
par Scenario.node[25].appl dataOnSch false
par Scenario.node[25].appl dataUserPriority 7
par Scenario.node[25].appl avoidBeaconSynchronization true
par Scenario.node[25].appl sendWSA false
par Scenario.node[25].appl wsaLengthBits 250bit
attr unit bit
par Scenario.node[25].appl wsaInterval 1s
attr unit s
par Scenario.node[25].appl appName "\"Vehicle Application\""
par Scenario.node[25].appl clusterBeaconDelay 5
par Scenario.node[25].appl localStepsPerEpoch 5
par Scenario.node[25].appl neighborTableTimeout 30
par Scenario.node[25].appl clusterElectionTimeout 3
par Scenario.node[25].appl clusterHeadTimeout 3
par Scenario.node[25].appl connectivityThreshold 0.6
par Scenario.node[25].appl electionScoreThreshold 0.6
par Scenario.node[25].appl clusterScoreThreshold 0.6
scalar Scenario.node[25].appl generatedWSMs 71
scalar Scenario.node[25].appl receivedWSMs 0
scalar Scenario.node[25].appl generatedBSMs 0
scalar Scenario.node[25].appl receivedBSMs 0
scalar Scenario.node[25].appl generatedWSAs 0
scalar Scenario.node[25].appl receivedWSAs 0
par Scenario.node[25].nic.phy80211p typename "\"org.car2x.veins.modules.phy.PhyLayer80211p\""
par Scenario.node[25].nic.phy80211p recordStats false
par Scenario.node[25].nic.phy80211p usePropagationDelay true
par Scenario.node[25].nic.phy80211p noiseFloor -98dBm
attr unit dBm
par Scenario.node[25].nic.phy80211p useNoiseFloor false
par Scenario.node[25].nic.phy80211p antenna "<Antenna type=\"SampledAntenna1D\" id=\"monopole\">...</Antenna> at /home/chandler/src/iov_sim/examples/iov_sim//antenna.xml:35"
par Scenario.node[25].nic.phy80211p antennaOffsetX 0m
attr unit m
par Scenario.node[25].nic.phy80211p antennaOffsetY 0m
attr unit m
par Scenario.node[25].nic.phy80211p antennaOffsetZ 1.895m
attr unit m
par Scenario.node[25].nic.phy80211p antennaOffsetYaw 0rad
attr unit rad
par Scenario.node[25].nic.phy80211p analogueModels "<root>...</root> at /home/chandler/src/iov_sim/examples/iov_sim//config.xml:34"
par Scenario.node[25].nic.phy80211p decider "<root>...</root> at /home/chandler/src/iov_sim/examples/iov_sim//config.xml:34"
par Scenario.node[25].nic.phy80211p minPowerLevel -110dBm
attr unit dBm
par Scenario.node[25].nic.phy80211p timeRXToTX 0s
attr unit s
par Scenario.node[25].nic.phy80211p timeRXToSleep 0s
attr unit s
par Scenario.node[25].nic.phy80211p timeTXToRX 0s
attr unit s
par Scenario.node[25].nic.phy80211p timeTXToSleep 0s
attr unit s
par Scenario.node[25].nic.phy80211p timeSleepToRX 0s
attr unit s
par Scenario.node[25].nic.phy80211p timeSleepToTX 0s
attr unit s
par Scenario.node[25].nic.phy80211p initialRadioState 0
par Scenario.node[25].nic.phy80211p radioMinAtt 1
par Scenario.node[25].nic.phy80211p radioMaxAtt 0
par Scenario.node[25].nic.phy80211p nbRadioChannels 1
par Scenario.node[25].nic.phy80211p initialRadioChannel 0
par Scenario.node[25].nic.phy80211p ccaThreshold -65dBm
attr unit dBm
par Scenario.node[25].nic.phy80211p collectCollisionStatistics false
par Scenario.node[25].nic.phy80211p allowTxDuringRx false
scalar Scenario.node[25].nic.phy80211p busyTime 0.00082254545454545
par Scenario.node[25].nic.mac1609_4 typename "\"org.car2x.veins.modules.mac.ieee80211p.Mac1609_4\""
par Scenario.node[25].nic.mac1609_4 notAffectedByHostState false
par Scenario.node[25].nic.mac1609_4 headerLength 0bit
attr unit bit
par Scenario.node[25].nic.mac1609_4 address "\"auto\""
par Scenario.node[25].nic.mac1609_4 useServiceChannel false
par Scenario.node[25].nic.mac1609_4 serviceChannel 1
par Scenario.node[25].nic.mac1609_4 bitrate 6000000bps
attr unit bps
par Scenario.node[25].nic.mac1609_4 syncOffset 0.0003s
attr unit s
par Scenario.node[25].nic.mac1609_4 txPower 20mW
attr unit mW
par Scenario.node[25].nic.mac1609_4 queueSize 0
par Scenario.node[25].nic.mac1609_4 dot11RTSThreshold 12000bit
attr unit bit
par Scenario.node[25].nic.mac1609_4 dot11ShortRetryLimit 7
par Scenario.node[25].nic.mac1609_4 dot11LongRetryLimit 4
par Scenario.node[25].nic.mac1609_4 ackLength 112bit
attr unit bit
par Scenario.node[25].nic.mac1609_4 useAcks false
par Scenario.node[25].nic.mac1609_4 frameErrorRate 0
par Scenario.node[25].nic.mac1609_4 ackErrorRate 0
scalar Scenario.node[25].nic.mac1609_4 ReceivedUnicastPackets 0
scalar Scenario.node[25].nic.mac1609_4 ReceivedBroadcasts 280
scalar Scenario.node[25].nic.mac1609_4 SentPackets 71
scalar Scenario.node[25].nic.mac1609_4 SentAcknowledgements 0
scalar Scenario.node[25].nic.mac1609_4 RetriesExceeded 0
scalar Scenario.node[25].nic.mac1609_4 SNIRLostPackets 110
scalar Scenario.node[25].nic.mac1609_4 RXTXLostPackets 41
scalar Scenario.node[25].nic.mac1609_4 TotalLostPackets 151
scalar Scenario.node[25].nic.mac1609_4 DroppedPacketsInMac 0
scalar Scenario.node[25].nic.mac1609_4 TooLittleTime 0
scalar Scenario.node[25].nic.mac1609_4 TimesIntoBackoff 71
scalar Scenario.node[25].nic.mac1609_4 SlotsBackoff 98
scalar Scenario.node[25].nic.mac1609_4 NumInternalContention 0
scalar Scenario.node[25].nic.mac1609_4 totalBusyTime 0.087303150677
scalar Scenario.node[25].nic.mac1609_4 retriesExceeded:count 0
attr moduledisplaypath "Scenario.electing CH. src: node[52].nic.mac1609_4"
attr recordingmode count
attr source org_car2x_veins_modules_mac_sigRetriesExceeded
scalar Scenario.node[25].nic.mac1609_4 sentAcks:count 0
attr moduledisplaypath "Scenario.electing CH. src: node[52].nic.mac1609_4"
attr recordingmode count
attr source org_car2x_veins_modules_mac_sigSentAck
scalar Scenario.node[25].nic.mac1609_4 sentPackets:count 71
attr moduledisplaypath "Scenario.electing CH. src: node[52].nic.mac1609_4"
attr recordingmode count
attr source org_car2x_veins_modules_mac_sigSentPacket
scalar Scenario.node[25].nic.mac1609_4 collisions:count 0
attr moduledisplaypath "Scenario.electing CH. src: node[52].nic.mac1609_4"
attr recordingmode count
attr source org_car2x_veins_modules_mac_sigCollision
scalar Scenario.node[25].nic.mac1609_4 channelBusy:timeavg 0.00079366500615454
attr moduledisplaypath "Scenario.electing CH. src: node[52].nic.mac1609_4"
attr recordingmode timeavg
attr source org_car2x_veins_modules_mac_sigChannelBusy
par Scenario.node[25].nic typename "\"org.car2x.veins.modules.nic.Nic80211p\""
par Scenario.node[25].nic connectionManagerName "\"connectionManager\""
par Scenario.node[25].veinsmobility typename "\"org.car2x.veins.modules.mobility.traci.TraCIMobility\""
par Scenario.node[25].veinsmobility notAffectedByHostState true
par Scenario.node[25].veinsmobility x 0
par Scenario.node[25].veinsmobility y 0
par Scenario.node[25].veinsmobility z 0
par Scenario.node[25].veinsmobility xOrientation 1
par Scenario.node[25].veinsmobility yOrientation 0
par Scenario.node[25].veinsmobility zOrientation 0
par Scenario.node[25].veinsmobility hostPositionOffset 0m
attr unit m
par Scenario.node[25].veinsmobility setHostSpeed false
par Scenario.node[25].veinsmobility accidentCount 0
par Scenario.node[25].veinsmobility accidentStart 50.9873s
attr unit s
par Scenario.node[25].veinsmobility accidentDuration "uniform(30s, 60s)"
attr unit s
par Scenario.node[25].veinsmobility accidentInterval "uniform(30s, 60s)"
attr unit s
scalar Scenario.node[25].veinsmobility startTime 12
scalar Scenario.node[25].veinsmobility totalTime 109
scalar Scenario.node[25].veinsmobility stopTime 122
scalar Scenario.node[25].veinsmobility minSpeed 0.00036676482288597
scalar Scenario.node[25].veinsmobility maxSpeed 15.075351787808
scalar Scenario.node[25].veinsmobility totalDistance 1273.3716447629
scalar Scenario.node[25].veinsmobility totalCO2Emission 310.55405484534
par Scenario.node[25] typename "\"org.car2x.veins.nodes.Car\""
par Scenario.node[25] applType "\"VehicleApplication\""
par Scenario.node[25] nicType "\"Nic80211p\""
par Scenario.node[25] veinsmobilityType "\"org.car2x.veins.modules.mobility.traci.TraCIMobility\""
par Scenario.node[6].appl typename "\"org.car2x.veins.subprojects.iov_sim.modules.applications.VehicleApplication\""
par Scenario.node[6].appl headerLength 80bit
attr unit bit
par Scenario.node[6].appl sendBeacons false
par Scenario.node[6].appl beaconLengthBits 256bit
attr unit bit
par Scenario.node[6].appl beaconUserPriority 7
par Scenario.node[6].appl beaconInterval 1s
attr unit s
par Scenario.node[6].appl dataLengthBits 1024bit
attr unit bit
par Scenario.node[6].appl dataOnSch false
par Scenario.node[6].appl dataUserPriority 7
par Scenario.node[6].appl avoidBeaconSynchronization true
par Scenario.node[6].appl sendWSA false
par Scenario.node[6].appl wsaLengthBits 250bit
attr unit bit
par Scenario.node[6].appl wsaInterval 1s
attr unit s
par Scenario.node[6].appl appName "\"Vehicle Application\""
par Scenario.node[6].appl clusterBeaconDelay 5
par Scenario.node[6].appl localStepsPerEpoch 5
par Scenario.node[6].appl neighborTableTimeout 30
par Scenario.node[6].appl clusterElectionTimeout 3
par Scenario.node[6].appl clusterHeadTimeout 3
par Scenario.node[6].appl connectivityThreshold 0.6
par Scenario.node[6].appl electionScoreThreshold 0.6
par Scenario.node[6].appl clusterScoreThreshold 0.6
scalar Scenario.node[6].appl generatedWSMs 90
scalar Scenario.node[6].appl receivedWSMs 0
scalar Scenario.node[6].appl generatedBSMs 0
scalar Scenario.node[6].appl receivedBSMs 0
scalar Scenario.node[6].appl generatedWSAs 0
scalar Scenario.node[6].appl receivedWSAs 0
par Scenario.node[6].nic.phy80211p typename "\"org.car2x.veins.modules.phy.PhyLayer80211p\""
par Scenario.node[6].nic.phy80211p recordStats false
par Scenario.node[6].nic.phy80211p usePropagationDelay true
par Scenario.node[6].nic.phy80211p noiseFloor -98dBm
attr unit dBm
par Scenario.node[6].nic.phy80211p useNoiseFloor false
par Scenario.node[6].nic.phy80211p antenna "<Antenna type=\"SampledAntenna1D\" id=\"monopole\">...</Antenna> at /home/chandler/src/iov_sim/examples/iov_sim//antenna.xml:35"
par Scenario.node[6].nic.phy80211p antennaOffsetX 0m
attr unit m
par Scenario.node[6].nic.phy80211p antennaOffsetY 0m
attr unit m
par Scenario.node[6].nic.phy80211p antennaOffsetZ 1.895m
attr unit m
par Scenario.node[6].nic.phy80211p antennaOffsetYaw 0rad
attr unit rad
par Scenario.node[6].nic.phy80211p analogueModels "<root>...</root> at /home/chandler/src/iov_sim/examples/iov_sim//config.xml:34"
par Scenario.node[6].nic.phy80211p decider "<root>...</root> at /home/chandler/src/iov_sim/examples/iov_sim//config.xml:34"
par Scenario.node[6].nic.phy80211p minPowerLevel -110dBm
attr unit dBm
par Scenario.node[6].nic.phy80211p timeRXToTX 0s
attr unit s
par Scenario.node[6].nic.phy80211p timeRXToSleep 0s
attr unit s
par Scenario.node[6].nic.phy80211p timeTXToRX 0s
attr unit s
par Scenario.node[6].nic.phy80211p timeTXToSleep 0s
attr unit s
par Scenario.node[6].nic.phy80211p timeSleepToRX 0s
attr unit s
par Scenario.node[6].nic.phy80211p timeSleepToTX 0s
attr unit s
par Scenario.node[6].nic.phy80211p initialRadioState 0
par Scenario.node[6].nic.phy80211p radioMinAtt 1
par Scenario.node[6].nic.phy80211p radioMaxAtt 0
par Scenario.node[6].nic.phy80211p nbRadioChannels 1
par Scenario.node[6].nic.phy80211p initialRadioChannel 0
par Scenario.node[6].nic.phy80211p ccaThreshold -65dBm
attr unit dBm
par Scenario.node[6].nic.phy80211p collectCollisionStatistics false
par Scenario.node[6].nic.phy80211p allowTxDuringRx false
scalar Scenario.node[6].nic.phy80211p busyTime 0.0042649333333335
par Scenario.node[6].nic.mac1609_4 typename "\"org.car2x.veins.modules.mac.ieee80211p.Mac1609_4\""
par Scenario.node[6].nic.mac1609_4 notAffectedByHostState false
par Scenario.node[6].nic.mac1609_4 headerLength 0bit
attr unit bit
par Scenario.node[6].nic.mac1609_4 address "\"auto\""
par Scenario.node[6].nic.mac1609_4 useServiceChannel false
par Scenario.node[6].nic.mac1609_4 serviceChannel 1
par Scenario.node[6].nic.mac1609_4 bitrate 6000000bps
attr unit bps
par Scenario.node[6].nic.mac1609_4 syncOffset 0.0003s
attr unit s
par Scenario.node[6].nic.mac1609_4 txPower 20mW
attr unit mW
par Scenario.node[6].nic.mac1609_4 queueSize 0
par Scenario.node[6].nic.mac1609_4 dot11RTSThreshold 12000bit
attr unit bit
par Scenario.node[6].nic.mac1609_4 dot11ShortRetryLimit 7
par Scenario.node[6].nic.mac1609_4 dot11LongRetryLimit 4
par Scenario.node[6].nic.mac1609_4 ackLength 112bit
attr unit bit
par Scenario.node[6].nic.mac1609_4 useAcks false
par Scenario.node[6].nic.mac1609_4 frameErrorRate 0
par Scenario.node[6].nic.mac1609_4 ackErrorRate 0
scalar Scenario.node[6].nic.mac1609_4 ReceivedUnicastPackets 0
scalar Scenario.node[6].nic.mac1609_4 ReceivedBroadcasts 1074
scalar Scenario.node[6].nic.mac1609_4 SentPackets 89
scalar Scenario.node[6].nic.mac1609_4 SentAcknowledgements 0
scalar Scenario.node[6].nic.mac1609_4 RetriesExceeded 0
scalar Scenario.node[6].nic.mac1609_4 SNIRLostPackets 1132
scalar Scenario.node[6].nic.mac1609_4 RXTXLostPackets 309
scalar Scenario.node[6].nic.mac1609_4 TotalLostPackets 1441
scalar Scenario.node[6].nic.mac1609_4 DroppedPacketsInMac 0
scalar Scenario.node[6].nic.mac1609_4 TooLittleTime 0
scalar Scenario.node[6].nic.mac1609_4 TimesIntoBackoff 90
scalar Scenario.node[6].nic.mac1609_4 SlotsBackoff 153
scalar Scenario.node[6].nic.mac1609_4 NumInternalContention 0
scalar Scenario.node[6].nic.mac1609_4 totalBusyTime 0.308881357584
scalar Scenario.node[6].nic.mac1609_4 retriesExceeded:count 0
attr moduledisplaypath "Scenario.electing CH. src: node[18].nic.mac1609_4"
attr recordingmode count
attr source org_car2x_veins_modules_mac_sigRetriesExceeded
scalar Scenario.node[6].nic.mac1609_4 sentAcks:count 0
attr moduledisplaypath "Scenario.electing CH. src: node[18].nic.mac1609_4"
attr recordingmode count
attr source org_car2x_veins_modules_mac_sigSentAck
scalar Scenario.node[6].nic.mac1609_4 sentPackets:count 89
attr moduledisplaypath "Scenario.electing CH. src: node[18].nic.mac1609_4"
attr recordingmode count
attr source org_car2x_veins_modules_mac_sigSentPacket
scalar Scenario.node[6].nic.mac1609_4 collisions:count 0
attr moduledisplaypath "Scenario.electing CH. src: node[18].nic.mac1609_4"
attr recordingmode count
attr source org_car2x_veins_modules_mac_sigCollision
scalar Scenario.node[6].nic.mac1609_4 channelBusy:timeavg 0.0025740113132001
attr moduledisplaypath "Scenario.electing CH. src: node[18].nic.mac1609_4"
attr recordingmode timeavg
attr source org_car2x_veins_modules_mac_sigChannelBusy
par Scenario.node[6].nic typename "\"org.car2x.veins.modules.nic.Nic80211p\""
par Scenario.node[6].nic connectionManagerName "\"connectionManager\""
par Scenario.node[6].veinsmobility typename "\"org.car2x.veins.modules.mobility.traci.TraCIMobility\""
par Scenario.node[6].veinsmobility notAffectedByHostState true
par Scenario.node[6].veinsmobility x 0
par Scenario.node[6].veinsmobility y 0
par Scenario.node[6].veinsmobility z 0
par Scenario.node[6].veinsmobility xOrientation 1
par Scenario.node[6].veinsmobility yOrientation 0
par Scenario.node[6].veinsmobility zOrientation 0
par Scenario.node[6].veinsmobility hostPositionOffset 0m
attr unit m
par Scenario.node[6].veinsmobility setHostSpeed false
par Scenario.node[6].veinsmobility accidentCount 0
par Scenario.node[6].veinsmobility accidentStart 40.1402s
attr unit s
par Scenario.node[6].veinsmobility accidentDuration "uniform(30s, 60s)"
attr unit s
par Scenario.node[6].veinsmobility accidentInterval "uniform(30s, 60s)"
attr unit s
scalar Scenario.node[6].veinsmobility startTime 4
scalar Scenario.node[6].veinsmobility totalTime 119
scalar Scenario.node[6].veinsmobility stopTime 124
scalar Scenario.node[6].veinsmobility minSpeed 2.2737992957234
scalar Scenario.node[6].veinsmobility maxSpeed 26.253138107368
scalar Scenario.node[6].veinsmobility totalDistance 2062.8392109091
scalar Scenario.node[6].veinsmobility totalCO2Emission 511.10445131114
par Scenario.node[6] typename "\"org.car2x.veins.nodes.Car\""
par Scenario.node[6] applType "\"VehicleApplication\""
par Scenario.node[6] nicType "\"Nic80211p\""
par Scenario.node[6] veinsmobilityType "\"org.car2x.veins.modules.mobility.traci.TraCIMobility\""
par Scenario.obstacles typename "\"org.car2x.veins.modules.obstacle.ObstacleControl\""
par Scenario.obstacles obstacles "<obstacles>...</obstacles> at /home/chandler/src/iov_sim/examples/iov_sim//config.xml:40"
par Scenario.obstacles gridCellSize 250
par Scenario.annotations typename "\"org.car2x.veins.modules.world.annotations.AnnotationManager\""
par Scenario.annotations draw true
par Scenario.annotations annotations "<annotations/> at content:1"
par Scenario.connectionManager typename "\"org.car2x.veins.base.connectionManager.ConnectionManager\""
par Scenario.connectionManager sendDirect true
par Scenario.connectionManager maxInterfDist 2600m
attr unit m
par Scenario.connectionManager drawMaxIntfDist false
par Scenario.world typename "\"org.car2x.veins.base.modules.BaseWorldUtility\""
par Scenario.world playgroundSizeX 12500m
attr unit m
par Scenario.world playgroundSizeY 7500m
attr unit m
par Scenario.world playgroundSizeZ 50m
attr unit m
par Scenario.world useTorus false
par Scenario.world use2D false
par Scenario.manager typename "\"org.car2x.veins.modules.mobility.traci.TraCIScenarioManagerLaunchd\""
par Scenario.manager connectAt 0s
attr unit s
par Scenario.manager firstStepAt -1s
attr unit s
par Scenario.manager updateInterval 1s
attr unit s
par Scenario.manager moduleType "\"org.car2x.veins.nodes.Car\""
par Scenario.manager moduleName "\"node\""
par Scenario.manager moduleDisplayString "\"*='i=veins/node/car;is=vs'\""
par Scenario.manager trafficLightModuleType "\"\""
par Scenario.manager trafficLightModuleName "\"tls\""
par Scenario.manager trafficLightFilter "\"\""
par Scenario.manager trafficLightModuleDisplayString "\"i=misc/node2;is=vs;r=0,,#707070,1\""
par Scenario.manager host "\"localhost\""
par Scenario.manager port 9999
par Scenario.manager seed -1
par Scenario.manager autoShutdown true
par Scenario.manager margin 25
par Scenario.manager roiRoads "\"\""
par Scenario.manager roiRects "\"\""
par Scenario.manager penetrationRate 1
par Scenario.manager ignoreGuiCommands false
par Scenario.manager launchConfig "<launch>...</launch> at /home/chandler/src/iov_sim/examples/iov_sim//sumo.launchd.xml:2"
scalar Scenario.manager roiArea 0
par Scenario.roadsCanvasVisualizer typename "\"org.car2x.veins.visualizer.roads.RoadsCanvasVisualizer\""
par Scenario.roadsCanvasVisualizer enabled true
par Scenario.roadsCanvasVisualizer lineZIndex -1
par Scenario.roadsCanvasVisualizer lineColor "\"firebrick4\""
par Scenario.roadsCanvasVisualizer lineWidth 1
par Scenario.roadsCanvasVisualizer lineWidthZoom false
par Scenario.MySimulationModule typename "\"org.car2x.veins.subprojects.iov_sim.base.python.PythonLifecycle\""
par Scenario.node[1].appl typename "\"org.car2x.veins.subprojects.iov_sim.modules.applications.VehicleApplication\""
par Scenario.node[1].appl headerLength 80bit
attr unit bit
par Scenario.node[1].appl sendBeacons false
par Scenario.node[1].appl beaconLengthBits 256bit
attr unit bit
par Scenario.node[1].appl beaconUserPriority 7
par Scenario.node[1].appl beaconInterval 1s
attr unit s
par Scenario.node[1].appl dataLengthBits 1024bit
attr unit bit
par Scenario.node[1].appl dataOnSch false
par Scenario.node[1].appl dataUserPriority 7
par Scenario.node[1].appl avoidBeaconSynchronization true
par Scenario.node[1].appl sendWSA false
par Scenario.node[1].appl wsaLengthBits 250bit
attr unit bit
par Scenario.node[1].appl wsaInterval 1s
attr unit s
par Scenario.node[1].appl appName "\"Vehicle Application\""
par Scenario.node[1].appl clusterBeaconDelay 5
par Scenario.node[1].appl localStepsPerEpoch 5
par Scenario.node[1].appl neighborTableTimeout 30
par Scenario.node[1].appl clusterElectionTimeout 3
par Scenario.node[1].appl clusterHeadTimeout 3
par Scenario.node[1].appl connectivityThreshold 0.6
par Scenario.node[1].appl electionScoreThreshold 0.6
par Scenario.node[1].appl clusterScoreThreshold 0.6
scalar Scenario.node[1].appl generatedWSMs 87
scalar Scenario.node[1].appl receivedWSMs 0
scalar Scenario.node[1].appl generatedBSMs 0
scalar Scenario.node[1].appl receivedBSMs 0
scalar Scenario.node[1].appl generatedWSAs 0
scalar Scenario.node[1].appl receivedWSAs 0
par Scenario.node[1].nic.phy80211p typename "\"org.car2x.veins.modules.phy.PhyLayer80211p\""
par Scenario.node[1].nic.phy80211p recordStats false
par Scenario.node[1].nic.phy80211p usePropagationDelay true
par Scenario.node[1].nic.phy80211p noiseFloor -98dBm
attr unit dBm
par Scenario.node[1].nic.phy80211p useNoiseFloor false
par Scenario.node[1].nic.phy80211p antenna "<Antenna type=\"SampledAntenna1D\" id=\"monopole\">...</Antenna> at /home/chandler/src/iov_sim/examples/iov_sim//antenna.xml:35"
par Scenario.node[1].nic.phy80211p antennaOffsetX 0m
attr unit m
par Scenario.node[1].nic.phy80211p antennaOffsetY 0m
attr unit m
par Scenario.node[1].nic.phy80211p antennaOffsetZ 1.895m
attr unit m
par Scenario.node[1].nic.phy80211p antennaOffsetYaw 0rad
attr unit rad
par Scenario.node[1].nic.phy80211p analogueModels "<root>...</root> at /home/chandler/src/iov_sim/examples/iov_sim//config.xml:34"
par Scenario.node[1].nic.phy80211p decider "<root>...</root> at /home/chandler/src/iov_sim/examples/iov_sim//config.xml:34"
par Scenario.node[1].nic.phy80211p minPowerLevel -110dBm
attr unit dBm
par Scenario.node[1].nic.phy80211p timeRXToTX 0s
attr unit s
par Scenario.node[1].nic.phy80211p timeRXToSleep 0s
attr unit s
par Scenario.node[1].nic.phy80211p timeTXToRX 0s
attr unit s
par Scenario.node[1].nic.phy80211p timeTXToSleep 0s
attr unit s
par Scenario.node[1].nic.phy80211p timeSleepToRX 0s
attr unit s
par Scenario.node[1].nic.phy80211p timeSleepToTX 0s
attr unit s
par Scenario.node[1].nic.phy80211p initialRadioState 0
par Scenario.node[1].nic.phy80211p radioMinAtt 1
par Scenario.node[1].nic.phy80211p radioMaxAtt 0
par Scenario.node[1].nic.phy80211p nbRadioChannels 1
par Scenario.node[1].nic.phy80211p initialRadioChannel 0
par Scenario.node[1].nic.phy80211p ccaThreshold -65dBm
attr unit dBm
par Scenario.node[1].nic.phy80211p collectCollisionStatistics false
par Scenario.node[1].nic.phy80211p allowTxDuringRx false
scalar Scenario.node[1].nic.phy80211p busyTime 0.0026802597781386
par Scenario.node[1].nic.mac1609_4 typename "\"org.car2x.veins.modules.mac.ieee80211p.Mac1609_4\""
par Scenario.node[1].nic.mac1609_4 notAffectedByHostState false
par Scenario.node[1].nic.mac1609_4 headerLength 0bit
attr unit bit
par Scenario.node[1].nic.mac1609_4 address "\"auto\""
par Scenario.node[1].nic.mac1609_4 useServiceChannel false
par Scenario.node[1].nic.mac1609_4 serviceChannel 1
par Scenario.node[1].nic.mac1609_4 bitrate 6000000bps
attr unit bps
par Scenario.node[1].nic.mac1609_4 syncOffset 0.0003s
attr unit s
par Scenario.node[1].nic.mac1609_4 txPower 20mW
attr unit mW
par Scenario.node[1].nic.mac1609_4 queueSize 0
par Scenario.node[1].nic.mac1609_4 dot11RTSThreshold 12000bit
attr unit bit
par Scenario.node[1].nic.mac1609_4 dot11ShortRetryLimit 7
par Scenario.node[1].nic.mac1609_4 dot11LongRetryLimit 4
par Scenario.node[1].nic.mac1609_4 ackLength 112bit
attr unit bit
par Scenario.node[1].nic.mac1609_4 useAcks false
par Scenario.node[1].nic.mac1609_4 frameErrorRate 0
par Scenario.node[1].nic.mac1609_4 ackErrorRate 0
scalar Scenario.node[1].nic.mac1609_4 ReceivedUnicastPackets 0
scalar Scenario.node[1].nic.mac1609_4 ReceivedBroadcasts 823
scalar Scenario.node[1].nic.mac1609_4 SentPackets 86
scalar Scenario.node[1].nic.mac1609_4 SentAcknowledgements 0
scalar Scenario.node[1].nic.mac1609_4 RetriesExceeded 0
scalar Scenario.node[1].nic.mac1609_4 SNIRLostPackets 598
scalar Scenario.node[1].nic.mac1609_4 RXTXLostPackets 183
scalar Scenario.node[1].nic.mac1609_4 TotalLostPackets 781
scalar Scenario.node[1].nic.mac1609_4 DroppedPacketsInMac 0
scalar Scenario.node[1].nic.mac1609_4 TooLittleTime 0
scalar Scenario.node[1].nic.mac1609_4 TimesIntoBackoff 87
scalar Scenario.node[1].nic.mac1609_4 SlotsBackoff 127
scalar Scenario.node[1].nic.mac1609_4 NumInternalContention 0
scalar Scenario.node[1].nic.mac1609_4 totalBusyTime 0.2390461774
scalar Scenario.node[1].nic.mac1609_4 retriesExceeded:count 0
attr moduledisplaypath "Scenario.electing CH. src: node[76].nic.mac1609_4"
attr recordingmode count
attr source org_car2x_veins_modules_mac_sigRetriesExceeded
scalar Scenario.node[1].nic.mac1609_4 sentAcks:count 0
attr moduledisplaypath "Scenario.electing CH. src: node[76].nic.mac1609_4"
attr recordingmode count
attr source org_car2x_veins_modules_mac_sigSentAck
scalar Scenario.node[1].nic.mac1609_4 sentPackets:count 86
attr moduledisplaypath "Scenario.electing CH. src: node[76].nic.mac1609_4"
attr recordingmode count
attr source org_car2x_veins_modules_mac_sigSentPacket
scalar Scenario.node[1].nic.mac1609_4 collisions:count 0
attr moduledisplaypath "Scenario.electing CH. src: node[76].nic.mac1609_4"
attr recordingmode count
attr source org_car2x_veins_modules_mac_sigCollision
scalar Scenario.node[1].nic.mac1609_4 channelBusy:timeavg 0.0019434645781352
attr moduledisplaypath "Scenario.electing CH. src: node[76].nic.mac1609_4"
attr recordingmode timeavg
attr source org_car2x_veins_modules_mac_sigChannelBusy
par Scenario.node[1].nic typename "\"org.car2x.veins.modules.nic.Nic80211p\""
par Scenario.node[1].nic connectionManagerName "\"connectionManager\""
par Scenario.node[1].veinsmobility typename "\"org.car2x.veins.modules.mobility.traci.TraCIMobility\""
par Scenario.node[1].veinsmobility notAffectedByHostState true
par Scenario.node[1].veinsmobility x 0
par Scenario.node[1].veinsmobility y 0
par Scenario.node[1].veinsmobility z 0
par Scenario.node[1].veinsmobility xOrientation 1
par Scenario.node[1].veinsmobility yOrientation 0
par Scenario.node[1].veinsmobility zOrientation 0
par Scenario.node[1].veinsmobility hostPositionOffset 0m
attr unit m
par Scenario.node[1].veinsmobility setHostSpeed false
par Scenario.node[1].veinsmobility accidentCount 0
par Scenario.node[1].veinsmobility accidentStart 51.619s
attr unit s
par Scenario.node[1].veinsmobility accidentDuration "uniform(30s, 60s)"
attr unit s
par Scenario.node[1].veinsmobility accidentInterval "uniform(30s, 60s)"
attr unit s
scalar Scenario.node[1].veinsmobility startTime 2
scalar Scenario.node[1].veinsmobility totalTime 123
scalar Scenario.node[1].veinsmobility stopTime 125.00001764343
scalar Scenario.node[1].veinsmobility minSpeed 0
scalar Scenario.node[1].veinsmobility maxSpeed 29.105052030401
scalar Scenario.node[1].veinsmobility totalDistance 2066.463803225
scalar Scenario.node[1].veinsmobility totalCO2Emission 629.34324300719
par Scenario.node[1] typename "\"org.car2x.veins.nodes.Car\""
par Scenario.node[1] applType "\"VehicleApplication\""
par Scenario.node[1] nicType "\"Nic80211p\""
par Scenario.node[1] veinsmobilityType "\"org.car2x.veins.modules.mobility.traci.TraCIMobility\""
par Scenario.node[2].appl typename "\"org.car2x.veins.subprojects.iov_sim.modules.applications.VehicleApplication\""
par Scenario.node[2].appl headerLength 80bit
attr unit bit
par Scenario.node[2].appl sendBeacons false
par Scenario.node[2].appl beaconLengthBits 256bit
attr unit bit
par Scenario.node[2].appl beaconUserPriority 7
par Scenario.node[2].appl beaconInterval 1s
attr unit s
par Scenario.node[2].appl dataLengthBits 1024bit
attr unit bit
par Scenario.node[2].appl dataOnSch false
par Scenario.node[2].appl dataUserPriority 7
par Scenario.node[2].appl avoidBeaconSynchronization true
par Scenario.node[2].appl sendWSA false
par Scenario.node[2].appl wsaLengthBits 250bit
attr unit bit
par Scenario.node[2].appl wsaInterval 1s
attr unit s
par Scenario.node[2].appl appName "\"Vehicle Application\""
par Scenario.node[2].appl clusterBeaconDelay 5
par Scenario.node[2].appl localStepsPerEpoch 5
par Scenario.node[2].appl neighborTableTimeout 30
par Scenario.node[2].appl clusterElectionTimeout 3
par Scenario.node[2].appl clusterHeadTimeout 3
par Scenario.node[2].appl connectivityThreshold 0.6
par Scenario.node[2].appl electionScoreThreshold 0.6
par Scenario.node[2].appl clusterScoreThreshold 0.6
scalar Scenario.node[2].appl generatedWSMs 83
scalar Scenario.node[2].appl receivedWSMs 0
scalar Scenario.node[2].appl generatedBSMs 0
scalar Scenario.node[2].appl receivedBSMs 0
scalar Scenario.node[2].appl generatedWSAs 0
scalar Scenario.node[2].appl receivedWSAs 0
par Scenario.node[2].nic.phy80211p typename "\"org.car2x.veins.modules.phy.PhyLayer80211p\""
par Scenario.node[2].nic.phy80211p recordStats false
par Scenario.node[2].nic.phy80211p usePropagationDelay true
par Scenario.node[2].nic.phy80211p noiseFloor -98dBm
attr unit dBm
par Scenario.node[2].nic.phy80211p useNoiseFloor false
par Scenario.node[2].nic.phy80211p antenna "<Antenna type=\"SampledAntenna1D\" id=\"monopole\">...</Antenna> at /home/chandler/src/iov_sim/examples/iov_sim//antenna.xml:35"
par Scenario.node[2].nic.phy80211p antennaOffsetX 0m
attr unit m
par Scenario.node[2].nic.phy80211p antennaOffsetY 0m
attr unit m
par Scenario.node[2].nic.phy80211p antennaOffsetZ 1.895m
attr unit m
par Scenario.node[2].nic.phy80211p antennaOffsetYaw 0rad
attr unit rad
par Scenario.node[2].nic.phy80211p analogueModels "<root>...</root> at /home/chandler/src/iov_sim/examples/iov_sim//config.xml:34"
par Scenario.node[2].nic.phy80211p decider "<root>...</root> at /home/chandler/src/iov_sim/examples/iov_sim//config.xml:34"
par Scenario.node[2].nic.phy80211p minPowerLevel -110dBm
attr unit dBm
par Scenario.node[2].nic.phy80211p timeRXToTX 0s
attr unit s
par Scenario.node[2].nic.phy80211p timeRXToSleep 0s
attr unit s
par Scenario.node[2].nic.phy80211p timeTXToRX 0s
attr unit s
par Scenario.node[2].nic.phy80211p timeTXToSleep 0s
attr unit s
par Scenario.node[2].nic.phy80211p timeSleepToRX 0s
attr unit s
par Scenario.node[2].nic.phy80211p timeSleepToTX 0s
attr unit s
par Scenario.node[2].nic.phy80211p initialRadioState 0
par Scenario.node[2].nic.phy80211p radioMinAtt 1
par Scenario.node[2].nic.phy80211p radioMaxAtt 0
par Scenario.node[2].nic.phy80211p nbRadioChannels 1
par Scenario.node[2].nic.phy80211p initialRadioChannel 0
par Scenario.node[2].nic.phy80211p ccaThreshold -65dBm
attr unit dBm
par Scenario.node[2].nic.phy80211p collectCollisionStatistics false
par Scenario.node[2].nic.phy80211p allowTxDuringRx false
scalar Scenario.node[2].nic.phy80211p busyTime 6.7902429284297e-05
par Scenario.node[2].nic.mac1609_4 typename "\"org.car2x.veins.modules.mac.ieee80211p.Mac1609_4\""
par Scenario.node[2].nic.mac1609_4 notAffectedByHostState false
par Scenario.node[2].nic.mac1609_4 headerLength 0bit
attr unit bit
par Scenario.node[2].nic.mac1609_4 address "\"auto\""
par Scenario.node[2].nic.mac1609_4 useServiceChannel false
par Scenario.node[2].nic.mac1609_4 serviceChannel 1
par Scenario.node[2].nic.mac1609_4 bitrate 6000000bps
attr unit bps
par Scenario.node[2].nic.mac1609_4 syncOffset 0.0003s
attr unit s
par Scenario.node[2].nic.mac1609_4 txPower 20mW
attr unit mW
par Scenario.node[2].nic.mac1609_4 queueSize 0
par Scenario.node[2].nic.mac1609_4 dot11RTSThreshold 12000bit
attr unit bit
par Scenario.node[2].nic.mac1609_4 dot11ShortRetryLimit 7
par Scenario.node[2].nic.mac1609_4 dot11LongRetryLimit 4
par Scenario.node[2].nic.mac1609_4 ackLength 112bit
attr unit bit
par Scenario.node[2].nic.mac1609_4 useAcks false
par Scenario.node[2].nic.mac1609_4 frameErrorRate 0
par Scenario.node[2].nic.mac1609_4 ackErrorRate 0
scalar Scenario.node[2].nic.mac1609_4 ReceivedUnicastPackets 0
scalar Scenario.node[2].nic.mac1609_4 ReceivedBroadcasts 36
scalar Scenario.node[2].nic.mac1609_4 SentPackets 82
scalar Scenario.node[2].nic.mac1609_4 SentAcknowledgements 0
scalar Scenario.node[2].nic.mac1609_4 RetriesExceeded 0
scalar Scenario.node[2].nic.mac1609_4 SNIRLostPackets 0
scalar Scenario.node[2].nic.mac1609_4 RXTXLostPackets 2
scalar Scenario.node[2].nic.mac1609_4 TotalLostPackets 2
scalar Scenario.node[2].nic.mac1609_4 DroppedPacketsInMac 0
scalar Scenario.node[2].nic.mac1609_4 TooLittleTime 0
scalar Scenario.node[2].nic.mac1609_4 TimesIntoBackoff 82
scalar Scenario.node[2].nic.mac1609_4 SlotsBackoff 117
scalar Scenario.node[2].nic.mac1609_4 NumInternalContention 0
scalar Scenario.node[2].nic.mac1609_4 totalBusyTime 0.027458
scalar Scenario.node[2].nic.mac1609_4 retriesExceeded:count 0
attr recordingmode count
attr source org_car2x_veins_modules_mac_sigRetriesExceeded
scalar Scenario.node[2].nic.mac1609_4 sentAcks:count 0
attr recordingmode count
attr source org_car2x_veins_modules_mac_sigSentAck
scalar Scenario.node[2].nic.mac1609_4 sentPackets:count 82
attr recordingmode count
attr source org_car2x_veins_modules_mac_sigSentPacket
scalar Scenario.node[2].nic.mac1609_4 collisions:count 0
attr recordingmode count
attr source org_car2x_veins_modules_mac_sigCollision
scalar Scenario.node[2].nic.mac1609_4 channelBusy:timeavg 0.00022323574033623
attr recordingmode timeavg
attr source org_car2x_veins_modules_mac_sigChannelBusy
par Scenario.node[2].nic typename "\"org.car2x.veins.modules.nic.Nic80211p\""
par Scenario.node[2].nic connectionManagerName "\"connectionManager\""
par Scenario.node[2].veinsmobility typename "\"org.car2x.veins.modules.mobility.traci.TraCIMobility\""
par Scenario.node[2].veinsmobility notAffectedByHostState true
par Scenario.node[2].veinsmobility x 0
par Scenario.node[2].veinsmobility y 0
par Scenario.node[2].veinsmobility z 0
par Scenario.node[2].veinsmobility xOrientation 1
par Scenario.node[2].veinsmobility yOrientation 0
par Scenario.node[2].veinsmobility zOrientation 0
par Scenario.node[2].veinsmobility hostPositionOffset 0m
attr unit m
par Scenario.node[2].veinsmobility setHostSpeed false
par Scenario.node[2].veinsmobility accidentCount 0
par Scenario.node[2].veinsmobility accidentStart 58.3401s
attr unit s
par Scenario.node[2].veinsmobility accidentDuration "uniform(30s, 60s)"
attr unit s
par Scenario.node[2].veinsmobility accidentInterval "uniform(30s, 60s)"
attr unit s
scalar Scenario.node[2].veinsmobility startTime 2
scalar Scenario.node[2].veinsmobility totalTime 123
scalar Scenario.node[2].veinsmobility stopTime 125.00001764343
scalar Scenario.node[2].veinsmobility minSpeed 0
scalar Scenario.node[2].veinsmobility maxSpeed 28.09439185531
scalar Scenario.node[2].veinsmobility totalDistance 1291.8745519884
scalar Scenario.node[2].veinsmobility totalCO2Emission 479.8377204917
par Scenario.node[2] typename "\"org.car2x.veins.nodes.Car\""
par Scenario.node[2] applType "\"VehicleApplication\""
par Scenario.node[2] nicType "\"Nic80211p\""
par Scenario.node[2] veinsmobilityType "\"org.car2x.veins.modules.mobility.traci.TraCIMobility\""
par Scenario.node[3].appl typename "\"org.car2x.veins.subprojects.iov_sim.modules.applications.VehicleApplication\""
par Scenario.node[3].appl headerLength 80bit
attr unit bit
par Scenario.node[3].appl sendBeacons false
par Scenario.node[3].appl beaconLengthBits 256bit
attr unit bit
par Scenario.node[3].appl beaconUserPriority 7
par Scenario.node[3].appl beaconInterval 1s
attr unit s
par Scenario.node[3].appl dataLengthBits 1024bit
attr unit bit
par Scenario.node[3].appl dataOnSch false
par Scenario.node[3].appl dataUserPriority 7
par Scenario.node[3].appl avoidBeaconSynchronization true
par Scenario.node[3].appl sendWSA false
par Scenario.node[3].appl wsaLengthBits 250bit
attr unit bit
par Scenario.node[3].appl wsaInterval 1s
attr unit s
par Scenario.node[3].appl appName "\"Vehicle Application\""
par Scenario.node[3].appl clusterBeaconDelay 5
par Scenario.node[3].appl localStepsPerEpoch 5
par Scenario.node[3].appl neighborTableTimeout 30
par Scenario.node[3].appl clusterElectionTimeout 3
par Scenario.node[3].appl clusterHeadTimeout 3
par Scenario.node[3].appl connectivityThreshold 0.6
par Scenario.node[3].appl electionScoreThreshold 0.6
par Scenario.node[3].appl clusterScoreThreshold 0.6
scalar Scenario.node[3].appl generatedWSMs 95
scalar Scenario.node[3].appl receivedWSMs 0
scalar Scenario.node[3].appl generatedBSMs 0
scalar Scenario.node[3].appl receivedBSMs 0
scalar Scenario.node[3].appl generatedWSAs 0
scalar Scenario.node[3].appl receivedWSAs 0
par Scenario.node[3].nic.phy80211p typename "\"org.car2x.veins.modules.phy.PhyLayer80211p\""
par Scenario.node[3].nic.phy80211p recordStats false
par Scenario.node[3].nic.phy80211p usePropagationDelay true
par Scenario.node[3].nic.phy80211p noiseFloor -98dBm
attr unit dBm
par Scenario.node[3].nic.phy80211p useNoiseFloor false
par Scenario.node[3].nic.phy80211p antenna "<Antenna type=\"SampledAntenna1D\" id=\"monopole\">...</Antenna> at /home/chandler/src/iov_sim/examples/iov_sim//antenna.xml:35"
par Scenario.node[3].nic.phy80211p antennaOffsetX 0m
attr unit m
par Scenario.node[3].nic.phy80211p antennaOffsetY 0m
attr unit m
par Scenario.node[3].nic.phy80211p antennaOffsetZ 1.895m
attr unit m
par Scenario.node[3].nic.phy80211p antennaOffsetYaw 0rad
attr unit rad
par Scenario.node[3].nic.phy80211p analogueModels "<root>...</root> at /home/chandler/src/iov_sim/examples/iov_sim//config.xml:34"
par Scenario.node[3].nic.phy80211p decider "<root>...</root> at /home/chandler/src/iov_sim/examples/iov_sim//config.xml:34"
par Scenario.node[3].nic.phy80211p minPowerLevel -110dBm
attr unit dBm
par Scenario.node[3].nic.phy80211p timeRXToTX 0s
attr unit s
par Scenario.node[3].nic.phy80211p timeRXToSleep 0s
attr unit s
par Scenario.node[3].nic.phy80211p timeTXToRX 0s
attr unit s
par Scenario.node[3].nic.phy80211p timeTXToSleep 0s
attr unit s
par Scenario.node[3].nic.phy80211p timeSleepToRX 0s
attr unit s
par Scenario.node[3].nic.phy80211p timeSleepToTX 0s
attr unit s
par Scenario.node[3].nic.phy80211p initialRadioState 0
par Scenario.node[3].nic.phy80211p radioMinAtt 1
par Scenario.node[3].nic.phy80211p radioMaxAtt 0
par Scenario.node[3].nic.phy80211p nbRadioChannels 1
par Scenario.node[3].nic.phy80211p initialRadioChannel 0
par Scenario.node[3].nic.phy80211p ccaThreshold -65dBm
attr unit dBm
par Scenario.node[3].nic.phy80211p collectCollisionStatistics false
par Scenario.node[3].nic.phy80211p allowTxDuringRx false
scalar Scenario.node[3].nic.phy80211p busyTime 0.0028011143490062
par Scenario.node[3].nic.mac1609_4 typename "\"org.car2x.veins.modules.mac.ieee80211p.Mac1609_4\""
par Scenario.node[3].nic.mac1609_4 notAffectedByHostState false
par Scenario.node[3].nic.mac1609_4 headerLength 0bit
attr unit bit
par Scenario.node[3].nic.mac1609_4 address "\"auto\""
par Scenario.node[3].nic.mac1609_4 useServiceChannel false
par Scenario.node[3].nic.mac1609_4 serviceChannel 1
par Scenario.node[3].nic.mac1609_4 bitrate 6000000bps
attr unit bps
par Scenario.node[3].nic.mac1609_4 syncOffset 0.0003s
attr unit s
par Scenario.node[3].nic.mac1609_4 txPower 20mW
attr unit mW
par Scenario.node[3].nic.mac1609_4 queueSize 0
par Scenario.node[3].nic.mac1609_4 dot11RTSThreshold 12000bit
attr unit bit
par Scenario.node[3].nic.mac1609_4 dot11ShortRetryLimit 7
par Scenario.node[3].nic.mac1609_4 dot11LongRetryLimit 4
par Scenario.node[3].nic.mac1609_4 ackLength 112bit
attr unit bit
par Scenario.node[3].nic.mac1609_4 useAcks false
par Scenario.node[3].nic.mac1609_4 frameErrorRate 0
par Scenario.node[3].nic.mac1609_4 ackErrorRate 0
scalar Scenario.node[3].nic.mac1609_4 ReceivedUnicastPackets 0
scalar Scenario.node[3].nic.mac1609_4 ReceivedBroadcasts 1002
scalar Scenario.node[3].nic.mac1609_4 SentPackets 95
scalar Scenario.node[3].nic.mac1609_4 SentAcknowledgements 0
scalar Scenario.node[3].nic.mac1609_4 RetriesExceeded 0
scalar Scenario.node[3].nic.mac1609_4 SNIRLostPackets 470
scalar Scenario.node[3].nic.mac1609_4 RXTXLostPackets 211
scalar Scenario.node[3].nic.mac1609_4 TotalLostPackets 681
scalar Scenario.node[3].nic.mac1609_4 DroppedPacketsInMac 0
scalar Scenario.node[3].nic.mac1609_4 TooLittleTime 0
scalar Scenario.node[3].nic.mac1609_4 TimesIntoBackoff 95
scalar Scenario.node[3].nic.mac1609_4 SlotsBackoff 148
scalar Scenario.node[3].nic.mac1609_4 NumInternalContention 0
scalar Scenario.node[3].nic.mac1609_4 totalBusyTime 0.27455137351
scalar Scenario.node[3].nic.mac1609_4 retriesExceeded:count 0
attr moduledisplaypath "Scenario.node[169]'s CM.nic.mac1609_4"
attr recordingmode count
attr source org_car2x_veins_modules_mac_sigRetriesExceeded
scalar Scenario.node[3].nic.mac1609_4 sentAcks:count 0
attr moduledisplaypath "Scenario.node[169]'s CM.nic.mac1609_4"
attr recordingmode count
attr source org_car2x_veins_modules_mac_sigSentAck
scalar Scenario.node[3].nic.mac1609_4 sentPackets:count 95
attr moduledisplaypath "Scenario.node[169]'s CM.nic.mac1609_4"
attr recordingmode count
attr source org_car2x_veins_modules_mac_sigSentPacket
scalar Scenario.node[3].nic.mac1609_4 collisions:count 0
attr moduledisplaypath "Scenario.node[169]'s CM.nic.mac1609_4"
attr recordingmode count
attr source org_car2x_veins_modules_mac_sigCollision
scalar Scenario.node[3].nic.mac1609_4 channelBusy:timeavg 0.0022505209296894
attr moduledisplaypath "Scenario.node[169]'s CM.nic.mac1609_4"
attr recordingmode timeavg
attr source org_car2x_veins_modules_mac_sigChannelBusy
par Scenario.node[3].nic typename "\"org.car2x.veins.modules.nic.Nic80211p\""
par Scenario.node[3].nic connectionManagerName "\"connectionManager\""
par Scenario.node[3].veinsmobility typename "\"org.car2x.veins.modules.mobility.traci.TraCIMobility\""
par Scenario.node[3].veinsmobility notAffectedByHostState true
par Scenario.node[3].veinsmobility x 0
par Scenario.node[3].veinsmobility y 0
par Scenario.node[3].veinsmobility z 0
par Scenario.node[3].veinsmobility xOrientation 1
par Scenario.node[3].veinsmobility yOrientation 0
par Scenario.node[3].veinsmobility zOrientation 0
par Scenario.node[3].veinsmobility hostPositionOffset 0m
attr unit m
par Scenario.node[3].veinsmobility setHostSpeed false
par Scenario.node[3].veinsmobility accidentCount 0
par Scenario.node[3].veinsmobility accidentStart 36.6696s
attr unit s
par Scenario.node[3].veinsmobility accidentDuration "uniform(30s, 60s)"
attr unit s
par Scenario.node[3].veinsmobility accidentInterval "uniform(30s, 60s)"
attr unit s
scalar Scenario.node[3].veinsmobility startTime 3
scalar Scenario.node[3].veinsmobility totalTime 122
scalar Scenario.node[3].veinsmobility stopTime 125.00001764343
scalar Scenario.node[3].veinsmobility minSpeed 0
scalar Scenario.node[3].veinsmobility maxSpeed 28.118014249454
scalar Scenario.node[3].veinsmobility totalDistance 938.12185914649
scalar Scenario.node[3].veinsmobility totalCO2Emission 329.00041447383
par Scenario.node[3] typename "\"org.car2x.veins.nodes.Car\""
par Scenario.node[3] applType "\"VehicleApplication\""
par Scenario.node[3] nicType "\"Nic80211p\""
par Scenario.node[3] veinsmobilityType "\"org.car2x.veins.modules.mobility.traci.TraCIMobility\""
par Scenario.node[4].appl typename "\"org.car2x.veins.subprojects.iov_sim.modules.applications.VehicleApplication\""
par Scenario.node[4].appl headerLength 80bit
attr unit bit
par Scenario.node[4].appl sendBeacons false
par Scenario.node[4].appl beaconLengthBits 256bit
attr unit bit
par Scenario.node[4].appl beaconUserPriority 7
par Scenario.node[4].appl beaconInterval 1s
attr unit s
par Scenario.node[4].appl dataLengthBits 1024bit
attr unit bit
par Scenario.node[4].appl dataOnSch false
par Scenario.node[4].appl dataUserPriority 7
par Scenario.node[4].appl avoidBeaconSynchronization true
par Scenario.node[4].appl sendWSA false
par Scenario.node[4].appl wsaLengthBits 250bit
attr unit bit
par Scenario.node[4].appl wsaInterval 1s
attr unit s
par Scenario.node[4].appl appName "\"Vehicle Application\""
par Scenario.node[4].appl clusterBeaconDelay 5
par Scenario.node[4].appl localStepsPerEpoch 5
par Scenario.node[4].appl neighborTableTimeout 30
par Scenario.node[4].appl clusterElectionTimeout 3
par Scenario.node[4].appl clusterHeadTimeout 3
par Scenario.node[4].appl connectivityThreshold 0.6
par Scenario.node[4].appl electionScoreThreshold 0.6
par Scenario.node[4].appl clusterScoreThreshold 0.6
scalar Scenario.node[4].appl generatedWSMs 89
scalar Scenario.node[4].appl receivedWSMs 0
scalar Scenario.node[4].appl generatedBSMs 0
scalar Scenario.node[4].appl receivedBSMs 0
scalar Scenario.node[4].appl generatedWSAs 0
scalar Scenario.node[4].appl receivedWSAs 0
par Scenario.node[4].nic.phy80211p typename "\"org.car2x.veins.modules.phy.PhyLayer80211p\""
par Scenario.node[4].nic.phy80211p recordStats false
par Scenario.node[4].nic.phy80211p usePropagationDelay true
par Scenario.node[4].nic.phy80211p noiseFloor -98dBm
attr unit dBm
par Scenario.node[4].nic.phy80211p useNoiseFloor false
[...]
par Scenario.rsu[6].mobility yOrientation 0
par Scenario.rsu[6].mobility zOrientation 0
par Scenario.rsu[6] typename "\"org.car2x.veins.nodes.RSU\""
par Scenario.rsu[6] applType "\"RSUApplication\""
par Scenario.rsu[6] nicType "\"Nic80211p\""
par Scenario.rsu[7].appl typename "\"org.car2x.veins.subprojects.iov_sim.modules.applications.RSUApplication\""
par Scenario.rsu[7].appl headerLength 80bit
attr unit bit
par Scenario.rsu[7].appl sendBeacons false
par Scenario.rsu[7].appl beaconLengthBits 256bit
attr unit bit
par Scenario.rsu[7].appl beaconUserPriority 7
par Scenario.rsu[7].appl beaconInterval 1s
attr unit s
par Scenario.rsu[7].appl dataLengthBits 1024bit
attr unit bit
par Scenario.rsu[7].appl dataOnSch false
par Scenario.rsu[7].appl dataUserPriority 5
par Scenario.rsu[7].appl avoidBeaconSynchronization true
par Scenario.rsu[7].appl sendWSA false
par Scenario.rsu[7].appl wsaLengthBits 250bit
attr unit bit
par Scenario.rsu[7].appl wsaInterval 1s
attr unit s
par Scenario.rsu[7].appl appName "\"RSU Application\""
par Scenario.rsu[7].appl policyLoad "\"fed_p\""
par Scenario.rsu[7].appl policySave "\"fed_p\""
par Scenario.rsu[7].appl valueLoad "\"fed_v\""
par Scenario.rsu[7].appl valueSave "\"fed_v\""
par Scenario.rsu[7].appl loadModel false
par Scenario.rsu[7].appl saveModel false
scalar Scenario.rsu[7].appl generatedWSMs 7
scalar Scenario.rsu[7].appl receivedWSMs 0
scalar Scenario.rsu[7].appl generatedBSMs 0
scalar Scenario.rsu[7].appl receivedBSMs 0
scalar Scenario.rsu[7].appl generatedWSAs 0
scalar Scenario.rsu[7].appl receivedWSAs 0
par Scenario.rsu[7].nic.phy80211p typename "\"org.car2x.veins.modules.phy.PhyLayer80211p\""
par Scenario.rsu[7].nic.phy80211p recordStats false
par Scenario.rsu[7].nic.phy80211p usePropagationDelay true
par Scenario.rsu[7].nic.phy80211p noiseFloor -98dBm
attr unit dBm
par Scenario.rsu[7].nic.phy80211p useNoiseFloor false
par Scenario.rsu[7].nic.phy80211p antenna "<Antenna type=\"SampledAntenna1D\" id=\"monopole\">...</Antenna> at /home/chandler/src/iov_sim/examples/iov_sim//antenna.xml:35"
par Scenario.rsu[7].nic.phy80211p antennaOffsetX 0m
attr unit m
par Scenario.rsu[7].nic.phy80211p antennaOffsetY 0m
attr unit m
par Scenario.rsu[7].nic.phy80211p antennaOffsetZ 0m
attr unit m
par Scenario.rsu[7].nic.phy80211p antennaOffsetYaw 0rad
attr unit rad
par Scenario.rsu[7].nic.phy80211p analogueModels "<root>...</root> at /home/chandler/src/iov_sim/examples/iov_sim//config.xml:34"
par Scenario.rsu[7].nic.phy80211p decider "<root>...</root> at /home/chandler/src/iov_sim/examples/iov_sim//config.xml:34"
par Scenario.rsu[7].nic.phy80211p minPowerLevel -110dBm
attr unit dBm
par Scenario.rsu[7].nic.phy80211p timeRXToTX 0s
attr unit s
par Scenario.rsu[7].nic.phy80211p timeRXToSleep 0s
attr unit s
par Scenario.rsu[7].nic.phy80211p timeTXToRX 0s
attr unit s
par Scenario.rsu[7].nic.phy80211p timeTXToSleep 0s
attr unit s
par Scenario.rsu[7].nic.phy80211p timeSleepToRX 0s
attr unit s
par Scenario.rsu[7].nic.phy80211p timeSleepToTX 0s
attr unit s
par Scenario.rsu[7].nic.phy80211p initialRadioState 0
par Scenario.rsu[7].nic.phy80211p radioMinAtt 1
par Scenario.rsu[7].nic.phy80211p radioMaxAtt 0
par Scenario.rsu[7].nic.phy80211p nbRadioChannels 1
par Scenario.rsu[7].nic.phy80211p initialRadioChannel 0
par Scenario.rsu[7].nic.phy80211p ccaThreshold -65dBm
attr unit dBm
par Scenario.rsu[7].nic.phy80211p collectCollisionStatistics false
par Scenario.rsu[7].nic.phy80211p allowTxDuringRx false
scalar Scenario.rsu[7].nic.phy80211p busyTime 7.7951988997279e-05
par Scenario.rsu[7].nic.mac1609_4 typename "\"org.car2x.veins.modules.mac.ieee80211p.Mac1609_4\""
par Scenario.rsu[7].nic.mac1609_4 notAffectedByHostState false
par Scenario.rsu[7].nic.mac1609_4 headerLength 0bit
attr unit bit
par Scenario.rsu[7].nic.mac1609_4 address "\"auto\""
par Scenario.rsu[7].nic.mac1609_4 useServiceChannel false
par Scenario.rsu[7].nic.mac1609_4 serviceChannel 1
par Scenario.rsu[7].nic.mac1609_4 bitrate 6000000bps
attr unit bps
par Scenario.rsu[7].nic.mac1609_4 syncOffset 0.0003s
attr unit s
par Scenario.rsu[7].nic.mac1609_4 txPower 20mW
attr unit mW
par Scenario.rsu[7].nic.mac1609_4 queueSize 0
par Scenario.rsu[7].nic.mac1609_4 dot11RTSThreshold 12000bit
attr unit bit
par Scenario.rsu[7].nic.mac1609_4 dot11ShortRetryLimit 7
par Scenario.rsu[7].nic.mac1609_4 dot11LongRetryLimit 4
par Scenario.rsu[7].nic.mac1609_4 ackLength 112bit
attr unit bit
par Scenario.rsu[7].nic.mac1609_4 useAcks false
par Scenario.rsu[7].nic.mac1609_4 frameErrorRate 0
par Scenario.rsu[7].nic.mac1609_4 ackErrorRate 0
scalar Scenario.rsu[7].nic.mac1609_4 ReceivedUnicastPackets 0
scalar Scenario.rsu[7].nic.mac1609_4 ReceivedBroadcasts 42
scalar Scenario.rsu[7].nic.mac1609_4 SentPackets 7
scalar Scenario.rsu[7].nic.mac1609_4 SentAcknowledgements 0
scalar Scenario.rsu[7].nic.mac1609_4 RetriesExceeded 0
scalar Scenario.rsu[7].nic.mac1609_4 SNIRLostPackets 0
scalar Scenario.rsu[7].nic.mac1609_4 RXTXLostPackets 0
scalar Scenario.rsu[7].nic.mac1609_4 TotalLostPackets 0
scalar Scenario.rsu[7].nic.mac1609_4 DroppedPacketsInMac 0
scalar Scenario.rsu[7].nic.mac1609_4 TooLittleTime 0
scalar Scenario.rsu[7].nic.mac1609_4 TimesIntoBackoff 7
scalar Scenario.rsu[7].nic.mac1609_4 SlotsBackoff 15
scalar Scenario.rsu[7].nic.mac1609_4 NumInternalContention 0
scalar Scenario.rsu[7].nic.mac1609_4 totalBusyTime 0.011375
scalar Scenario.rsu[7].nic.mac1609_4 retriesExceeded:count 0
attr recordingmode count
attr source org_car2x_veins_modules_mac_sigRetriesExceeded
scalar Scenario.rsu[7].nic.mac1609_4 sentAcks:count 0
attr recordingmode count
attr source org_car2x_veins_modules_mac_sigSentAck
scalar Scenario.rsu[7].nic.mac1609_4 sentPackets:count 7
attr recordingmode count
attr source org_car2x_veins_modules_mac_sigSentPacket
scalar Scenario.rsu[7].nic.mac1609_4 collisions:count 0
attr recordingmode count
attr source org_car2x_veins_modules_mac_sigCollision
scalar Scenario.rsu[7].nic.mac1609_4 channelBusy:timeavg 9.0999987155588e-05
attr recordingmode timeavg
attr source org_car2x_veins_modules_mac_sigChannelBusy
par Scenario.rsu[7].nic typename "\"org.car2x.veins.modules.nic.Nic80211p\""
par Scenario.rsu[7].nic connectionManagerName "\"connectionManager\""
par Scenario.rsu[7].mobility typename "\"org.car2x.veins.base.modules.BaseMobility\""
par Scenario.rsu[7].mobility notAffectedByHostState true
par Scenario.rsu[7].mobility x 2750
par Scenario.rsu[7].mobility y 6000
par Scenario.rsu[7].mobility z 3
par Scenario.rsu[7].mobility xOrientation 1
par Scenario.rsu[7].mobility yOrientation 0
par Scenario.rsu[7].mobility zOrientation 0
par Scenario.rsu[7] typename "\"org.car2x.veins.nodes.RSU\""
par Scenario.rsu[7] applType "\"RSUApplication\""
par Scenario.rsu[7] nicType "\"Nic80211p\""
par Scenario.rsu[8].appl typename "\"org.car2x.veins.subprojects.iov_sim.modules.applications.RSUApplication\""
par Scenario.rsu[8].appl headerLength 80bit
attr unit bit
par Scenario.rsu[8].appl sendBeacons false
par Scenario.rsu[8].appl beaconLengthBits 256bit
attr unit bit
par Scenario.rsu[8].appl beaconUserPriority 7
par Scenario.rsu[8].appl beaconInterval 1s
attr unit s
par Scenario.rsu[8].appl dataLengthBits 1024bit
attr unit bit
par Scenario.rsu[8].appl dataOnSch false
par Scenario.rsu[8].appl dataUserPriority 5
par Scenario.rsu[8].appl avoidBeaconSynchronization true
par Scenario.rsu[8].appl sendWSA false
par Scenario.rsu[8].appl wsaLengthBits 250bit
attr unit bit
par Scenario.rsu[8].appl wsaInterval 1s
attr unit s
par Scenario.rsu[8].appl appName "\"RSU Application\""
par Scenario.rsu[8].appl policyLoad "\"fed_p\""
par Scenario.rsu[8].appl policySave "\"fed_p\""
par Scenario.rsu[8].appl valueLoad "\"fed_v\""
par Scenario.rsu[8].appl valueSave "\"fed_v\""
par Scenario.rsu[8].appl loadModel false
par Scenario.rsu[8].appl saveModel false
scalar Scenario.rsu[8].appl generatedWSMs 28
scalar Scenario.rsu[8].appl receivedWSMs 0
scalar Scenario.rsu[8].appl generatedBSMs 0
scalar Scenario.rsu[8].appl receivedBSMs 0
scalar Scenario.rsu[8].appl generatedWSAs 0
scalar Scenario.rsu[8].appl receivedWSAs 0
par Scenario.rsu[8].nic.phy80211p typename "\"org.car2x.veins.modules.phy.PhyLayer80211p\""
par Scenario.rsu[8].nic.phy80211p recordStats false
par Scenario.rsu[8].nic.phy80211p usePropagationDelay true
par Scenario.rsu[8].nic.phy80211p noiseFloor -98dBm
attr unit dBm
par Scenario.rsu[8].nic.phy80211p useNoiseFloor false
par Scenario.rsu[8].nic.phy80211p antenna "<Antenna type=\"SampledAntenna1D\" id=\"monopole\">...</Antenna> at /home/chandler/src/iov_sim/examples/iov_sim//antenna.xml:35"
par Scenario.rsu[8].nic.phy80211p antennaOffsetX 0m
attr unit m
par Scenario.rsu[8].nic.phy80211p antennaOffsetY 0m
attr unit m
par Scenario.rsu[8].nic.phy80211p antennaOffsetZ 0m
attr unit m
par Scenario.rsu[8].nic.phy80211p antennaOffsetYaw 0rad
attr unit rad
par Scenario.rsu[8].nic.phy80211p analogueModels "<root>...</root> at /home/chandler/src/iov_sim/examples/iov_sim//config.xml:34"
par Scenario.rsu[8].nic.phy80211p decider "<root>...</root> at /home/chandler/src/iov_sim/examples/iov_sim//config.xml:34"
par Scenario.rsu[8].nic.phy80211p minPowerLevel -110dBm
attr unit dBm
par Scenario.rsu[8].nic.phy80211p timeRXToTX 0s
attr unit s
par Scenario.rsu[8].nic.phy80211p timeRXToSleep 0s
attr unit s
par Scenario.rsu[8].nic.phy80211p timeTXToRX 0s
attr unit s
par Scenario.rsu[8].nic.phy80211p timeTXToSleep 0s
attr unit s
par Scenario.rsu[8].nic.phy80211p timeSleepToRX 0s
attr unit s
par Scenario.rsu[8].nic.phy80211p timeSleepToTX 0s
attr unit s
par Scenario.rsu[8].nic.phy80211p initialRadioState 0
par Scenario.rsu[8].nic.phy80211p radioMinAtt 1
par Scenario.rsu[8].nic.phy80211p radioMaxAtt 0
par Scenario.rsu[8].nic.phy80211p nbRadioChannels 1
par Scenario.rsu[8].nic.phy80211p initialRadioChannel 0
par Scenario.rsu[8].nic.phy80211p ccaThreshold -65dBm
attr unit dBm
par Scenario.rsu[8].nic.phy80211p collectCollisionStatistics false
par Scenario.rsu[8].nic.phy80211p allowTxDuringRx false
scalar Scenario.rsu[8].nic.phy80211p busyTime 0.0017167997576782
par Scenario.rsu[8].nic.mac1609_4 typename "\"org.car2x.veins.modules.mac.ieee80211p.Mac1609_4\""
par Scenario.rsu[8].nic.mac1609_4 notAffectedByHostState false
par Scenario.rsu[8].nic.mac1609_4 headerLength 0bit
attr unit bit
par Scenario.rsu[8].nic.mac1609_4 address "\"auto\""
par Scenario.rsu[8].nic.mac1609_4 useServiceChannel false
par Scenario.rsu[8].nic.mac1609_4 serviceChannel 1
par Scenario.rsu[8].nic.mac1609_4 bitrate 6000000bps
attr unit bps
par Scenario.rsu[8].nic.mac1609_4 syncOffset 0.0003s
attr unit s
par Scenario.rsu[8].nic.mac1609_4 txPower 20mW
attr unit mW
par Scenario.rsu[8].nic.mac1609_4 queueSize 0
par Scenario.rsu[8].nic.mac1609_4 dot11RTSThreshold 12000bit
attr unit bit
par Scenario.rsu[8].nic.mac1609_4 dot11ShortRetryLimit 7
par Scenario.rsu[8].nic.mac1609_4 dot11LongRetryLimit 4
par Scenario.rsu[8].nic.mac1609_4 ackLength 112bit
attr unit bit
par Scenario.rsu[8].nic.mac1609_4 useAcks false
par Scenario.rsu[8].nic.mac1609_4 frameErrorRate 0
par Scenario.rsu[8].nic.mac1609_4 ackErrorRate 0
scalar Scenario.rsu[8].nic.mac1609_4 ReceivedUnicastPackets 0
scalar Scenario.rsu[8].nic.mac1609_4 ReceivedBroadcasts 550
scalar Scenario.rsu[8].nic.mac1609_4 SentPackets 28
scalar Scenario.rsu[8].nic.mac1609_4 SentAcknowledgements 0
scalar Scenario.rsu[8].nic.mac1609_4 RetriesExceeded 0
scalar Scenario.rsu[8].nic.mac1609_4 SNIRLostPackets 375
scalar Scenario.rsu[8].nic.mac1609_4 RXTXLostPackets 0
scalar Scenario.rsu[8].nic.mac1609_4 TotalLostPackets 375
scalar Scenario.rsu[8].nic.mac1609_4 DroppedPacketsInMac 0
scalar Scenario.rsu[8].nic.mac1609_4 TooLittleTime 0
scalar Scenario.rsu[8].nic.mac1609_4 TimesIntoBackoff 28
scalar Scenario.rsu[8].nic.mac1609_4 SlotsBackoff 96
scalar Scenario.rsu[8].nic.mac1609_4 NumInternalContention 0
scalar Scenario.rsu[8].nic.mac1609_4 totalBusyTime 0.15222
scalar Scenario.rsu[8].nic.mac1609_4 retriesExceeded:count 0
attr recordingmode count
attr source org_car2x_veins_modules_mac_sigRetriesExceeded
scalar Scenario.rsu[8].nic.mac1609_4 sentAcks:count 0
attr recordingmode count
attr source org_car2x_veins_modules_mac_sigSentAck
scalar Scenario.rsu[8].nic.mac1609_4 sentPackets:count 28
attr recordingmode count
attr source org_car2x_veins_modules_mac_sigSentPacket
scalar Scenario.rsu[8].nic.mac1609_4 collisions:count 0
attr recordingmode count
attr source org_car2x_veins_modules_mac_sigCollision
scalar Scenario.rsu[8].nic.mac1609_4 channelBusy:timeavg 0.0012177598281164
attr recordingmode timeavg
attr source org_car2x_veins_modules_mac_sigChannelBusy
par Scenario.rsu[8].nic typename "\"org.car2x.veins.modules.nic.Nic80211p\""
par Scenario.rsu[8].nic connectionManagerName "\"connectionManager\""
par Scenario.rsu[8].mobility typename "\"org.car2x.veins.base.modules.BaseMobility\""
par Scenario.rsu[8].mobility notAffectedByHostState true
par Scenario.rsu[8].mobility x 5750
par Scenario.rsu[8].mobility y 5750
par Scenario.rsu[8].mobility z 3
par Scenario.rsu[8].mobility xOrientation 1
par Scenario.rsu[8].mobility yOrientation 0
par Scenario.rsu[8].mobility zOrientation 0
par Scenario.rsu[8] typename "\"org.car2x.veins.nodes.RSU\""
par Scenario.rsu[8] applType "\"RSUApplication\""
par Scenario.rsu[8] nicType "\"Nic80211p\""
par Scenario.rsu[9].appl typename "\"org.car2x.veins.subprojects.iov_sim.modules.applications.RSUApplication\""
par Scenario.rsu[9].appl headerLength 80bit
attr unit bit
par Scenario.rsu[9].appl sendBeacons false
par Scenario.rsu[9].appl beaconLengthBits 256bit
attr unit bit
par Scenario.rsu[9].appl beaconUserPriority 7
par Scenario.rsu[9].appl beaconInterval 1s
attr unit s
par Scenario.rsu[9].appl dataLengthBits 1024bit
attr unit bit
par Scenario.rsu[9].appl dataOnSch false
par Scenario.rsu[9].appl dataUserPriority 5
par Scenario.rsu[9].appl avoidBeaconSynchronization true
par Scenario.rsu[9].appl sendWSA false
par Scenario.rsu[9].appl wsaLengthBits 250bit
attr unit bit
par Scenario.rsu[9].appl wsaInterval 1s
attr unit s
par Scenario.rsu[9].appl appName "\"RSU Application\""
par Scenario.rsu[9].appl policyLoad "\"fed_p\""
par Scenario.rsu[9].appl policySave "\"fed_p\""
par Scenario.rsu[9].appl valueLoad "\"fed_v\""
par Scenario.rsu[9].appl valueSave "\"fed_v\""
par Scenario.rsu[9].appl loadModel false
par Scenario.rsu[9].appl saveModel false
scalar Scenario.rsu[9].appl generatedWSMs 29
scalar Scenario.rsu[9].appl receivedWSMs 0
scalar Scenario.rsu[9].appl generatedBSMs 0
scalar Scenario.rsu[9].appl receivedBSMs 0
scalar Scenario.rsu[9].appl generatedWSAs 0
scalar Scenario.rsu[9].appl receivedWSAs 0
par Scenario.rsu[9].nic.phy80211p typename "\"org.car2x.veins.modules.phy.PhyLayer80211p\""
par Scenario.rsu[9].nic.phy80211p recordStats false
par Scenario.rsu[9].nic.phy80211p usePropagationDelay true
par Scenario.rsu[9].nic.phy80211p noiseFloor -98dBm
attr unit dBm
par Scenario.rsu[9].nic.phy80211p useNoiseFloor false
par Scenario.rsu[9].nic.phy80211p antenna "<Antenna type=\"SampledAntenna1D\" id=\"monopole\">...</Antenna> at /home/chandler/src/iov_sim/examples/iov_sim//antenna.xml:35"
par Scenario.rsu[9].nic.phy80211p antennaOffsetX 0m
attr unit m
par Scenario.rsu[9].nic.phy80211p antennaOffsetY 0m
attr unit m
par Scenario.rsu[9].nic.phy80211p antennaOffsetZ 0m
attr unit m
par Scenario.rsu[9].nic.phy80211p antennaOffsetYaw 0rad
attr unit rad
par Scenario.rsu[9].nic.phy80211p analogueModels "<root>...</root> at /home/chandler/src/iov_sim/examples/iov_sim//config.xml:34"
par Scenario.rsu[9].nic.phy80211p decider "<root>...</root> at /home/chandler/src/iov_sim/examples/iov_sim//config.xml:34"
par Scenario.rsu[9].nic.phy80211p minPowerLevel -110dBm
attr unit dBm
par Scenario.rsu[9].nic.phy80211p timeRXToTX 0s
attr unit s
par Scenario.rsu[9].nic.phy80211p timeRXToSleep 0s
attr unit s
par Scenario.rsu[9].nic.phy80211p timeTXToRX 0s
attr unit s
par Scenario.rsu[9].nic.phy80211p timeTXToSleep 0s
attr unit s
par Scenario.rsu[9].nic.phy80211p timeSleepToRX 0s
attr unit s
par Scenario.rsu[9].nic.phy80211p timeSleepToTX 0s
attr unit s
par Scenario.rsu[9].nic.phy80211p initialRadioState 0
par Scenario.rsu[9].nic.phy80211p radioMinAtt 1
par Scenario.rsu[9].nic.phy80211p radioMaxAtt 0
par Scenario.rsu[9].nic.phy80211p nbRadioChannels 1
par Scenario.rsu[9].nic.phy80211p initialRadioChannel 0
par Scenario.rsu[9].nic.phy80211p ccaThreshold -65dBm
attr unit dBm
par Scenario.rsu[9].nic.phy80211p collectCollisionStatistics false
par Scenario.rsu[9].nic.phy80211p allowTxDuringRx false
scalar Scenario.rsu[9].nic.phy80211p busyTime 0.0031867515501984
par Scenario.rsu[9].nic.mac1609_4 typename "\"org.car2x.veins.modules.mac.ieee80211p.Mac1609_4\""
par Scenario.rsu[9].nic.mac1609_4 notAffectedByHostState false
par Scenario.rsu[9].nic.mac1609_4 headerLength 0bit
attr unit bit
par Scenario.rsu[9].nic.mac1609_4 address "\"auto\""
par Scenario.rsu[9].nic.mac1609_4 useServiceChannel false
par Scenario.rsu[9].nic.mac1609_4 serviceChannel 1
par Scenario.rsu[9].nic.mac1609_4 bitrate 6000000bps
attr unit bps
par Scenario.rsu[9].nic.mac1609_4 syncOffset 0.0003s
attr unit s
par Scenario.rsu[9].nic.mac1609_4 txPower 20mW
attr unit mW
par Scenario.rsu[9].nic.mac1609_4 queueSize 0
par Scenario.rsu[9].nic.mac1609_4 dot11RTSThreshold 12000bit
attr unit bit
par Scenario.rsu[9].nic.mac1609_4 dot11ShortRetryLimit 7
par Scenario.rsu[9].nic.mac1609_4 dot11LongRetryLimit 4
par Scenario.rsu[9].nic.mac1609_4 ackLength 112bit
attr unit bit
par Scenario.rsu[9].nic.mac1609_4 useAcks false
par Scenario.rsu[9].nic.mac1609_4 frameErrorRate 0
par Scenario.rsu[9].nic.mac1609_4 ackErrorRate 0
scalar Scenario.rsu[9].nic.mac1609_4 ReceivedUnicastPackets 0
scalar Scenario.rsu[9].nic.mac1609_4 ReceivedBroadcasts 819
scalar Scenario.rsu[9].nic.mac1609_4 SentPackets 29
scalar Scenario.rsu[9].nic.mac1609_4 SentAcknowledgements 0
scalar Scenario.rsu[9].nic.mac1609_4 RetriesExceeded 0
scalar Scenario.rsu[9].nic.mac1609_4 SNIRLostPackets 898
scalar Scenario.rsu[9].nic.mac1609_4 RXTXLostPackets 0
scalar Scenario.rsu[9].nic.mac1609_4 TotalLostPackets 898
scalar Scenario.rsu[9].nic.mac1609_4 DroppedPacketsInMac 0
scalar Scenario.rsu[9].nic.mac1609_4 TooLittleTime 0
scalar Scenario.rsu[9].nic.mac1609_4 TimesIntoBackoff 29
scalar Scenario.rsu[9].nic.mac1609_4 SlotsBackoff 98
scalar Scenario.rsu[9].nic.mac1609_4 NumInternalContention 0
scalar Scenario.rsu[9].nic.mac1609_4 totalBusyTime 0.232261
scalar Scenario.rsu[9].nic.mac1609_4 retriesExceeded:count 0
attr recordingmode count
attr source org_car2x_veins_modules_mac_sigRetriesExceeded
scalar Scenario.rsu[9].nic.mac1609_4 sentAcks:count 0
attr recordingmode count
attr source org_car2x_veins_modules_mac_sigSentAck
scalar Scenario.rsu[9].nic.mac1609_4 sentPackets:count 29
attr recordingmode count
attr source org_car2x_veins_modules_mac_sigSentPacket
scalar Scenario.rsu[9].nic.mac1609_4 collisions:count 0
attr recordingmode count
attr source org_car2x_veins_modules_mac_sigCollision
scalar Scenario.rsu[9].nic.mac1609_4 channelBusy:timeavg 0.0018580877377358
attr recordingmode timeavg
attr source org_car2x_veins_modules_mac_sigChannelBusy
par Scenario.rsu[9].nic typename "\"org.car2x.veins.modules.nic.Nic80211p\""
par Scenario.rsu[9].nic connectionManagerName "\"connectionManager\""
par Scenario.rsu[9].mobility typename "\"org.car2x.veins.base.modules.BaseMobility\""
par Scenario.rsu[9].mobility notAffectedByHostState true
par Scenario.rsu[9].mobility x 9000
par Scenario.rsu[9].mobility y 5500
par Scenario.rsu[9].mobility z 3
par Scenario.rsu[9].mobility xOrientation 1
par Scenario.rsu[9].mobility yOrientation 0
par Scenario.rsu[9].mobility zOrientation 0
par Scenario.rsu[9] typename "\"org.car2x.veins.nodes.RSU\""
par Scenario.rsu[9] applType "\"RSUApplication\""
par Scenario.rsu[9] nicType "\"Nic80211p\""
par Scenario typename "\"iov_sim.examples.iov_sim.Scenario\""
par Scenario playgroundSizeX 12500m
attr unit m
par Scenario playgroundSizeY 7500m
attr unit m
par Scenario playgroundSizeZ 50m
attr unit m
par Scenario n 10

