file 2607064 1691303333                                         
version 3
run NoLoadSave-0-20230806-02:24:03-7570
attr configname NoLoadSave
attr datetime 20230806-02:24:03
attr datetimef 20230806-022403
attr experiment NoLoadSave
attr inifile omnetpp.ini
attr iterationvars ""
attr iterationvarsd ""
attr iterationvarsf ""
attr measurement ""
attr network Scenario
attr processid 7570
attr repetition 0
attr replication #0
attr resultdir results
attr runnumber 0
attr seedset 0
config image-path ../../images:../../../veins/images
config *.rsu[*].appl.loadModel false
config *.rsu[*].appl.saveModel false
config cmdenv-express-mode true
config cmdenv-autoflush true
config cmdenv-status-frequency 1s
config **.cmdenv-log-level info
config image-path ../../images
config network Scenario
config debug-on-errors true
config print-undisposed true
config sim-time-limit 600s
config **.scalar-recording true
config **.vector-recording true
config *.playgroundSizeX 12500m
config *.playgroundSizeY 7500m
config *.playgroundSizeZ 50m
config *.annotations.draw true
config *.obstacles.obstacles "xmldoc(\"config.xml\", \"//AnalogueModel[@type='SimpleObstacleShadowing']/obstacles\")"
config *.manager.updateInterval 1s
config *.manager.host "\"localhost\""
config *.manager.port 9999
config *.manager.autoShutdown true
config *.manager.launchConfig "xmldoc(\"sumo.launchd.xml\")"
config *.rsu[*].applType "\"RSUApplication\""
config *.rsu[0].appl.policySave "\"fed_p_0\""
config *.rsu[0].appl.valueSave "\"fed_v_0\""
config *.rsu[*].appl.headerLength "80 bit"
config *.rsu[*].appl.sendBeacons false
config *.rsu[*].appl.dataOnSch false
config *.rsu[*].appl.beaconInterval 1s
config *.rsu[*].appl.beaconUserPriority 7
config *.rsu[*].appl.dataUserPriority 5
config *.rsu[*].nic.phy80211p.antennaOffsetZ "0 m"
config *.connectionManager.sendDirect true
config *.connectionManager.maxInterfDist 2600m
config *.connectionManager.drawMaxIntfDist false
config *.**.nic.mac1609_4.useServiceChannel false
config *.**.nic.mac1609_4.txPower 20mW
config *.**.nic.mac1609_4.bitrate 6Mbps
config *.**.nic.phy80211p.minPowerLevel -110dBm
config *.**.nic.phy80211p.useNoiseFloor false
config *.**.nic.phy80211p.noiseFloor -98dBm
config *.**.nic.phy80211p.decider "xmldoc(\"config.xml\")"
config *.**.nic.phy80211p.analogueModels "xmldoc(\"config.xml\")"
config *.**.nic.phy80211p.usePropagationDelay true
config *.**.nic.phy80211p.antenna "xmldoc(\"antenna.xml\", \"/root/Antenna[@id='monopole']\")"
config *.node[*].nic.phy80211p.antennaOffsetY "0 m"
config *.node[*].nic.phy80211p.antennaOffsetZ "1.895 m"
config *.node[*].applType "\"VehicleApplication\""
config *.node[*].appl.headerLength "80 bit"
config *.node[*].appl.sendBeacons false
config *.node[*].appl.dataOnSch false
config *.node[*].appl.beaconInterval 1s
config *.node[*].veinsmobility.x 0
config *.node[*].veinsmobility.y 0
config *.node[*].veinsmobility.z 0
config *.node[*].veinsmobility.setHostSpeed false
config *.node[*0].veinsmobility.accidentCount 1
config *.node[*0].veinsmobility.accidentStart 73s
config *.node[*0].veinsmobility.accidentDuration 50s

vector 0 Scenario.node[0].veinsmobility posx ETV
vector 1 Scenario.node[0].veinsmobility posy ETV
vector 2 Scenario.node[1].veinsmobility posx ETV
vector 3 Scenario.node[1].veinsmobility posy ETV
vector 4 Scenario.node[2].veinsmobility posx ETV
vector 5 Scenario.node[2].veinsmobility posy ETV
vector 6 Scenario.node[0].veinsmobility speed ETV
vector 7 Scenario.node[3].veinsmobility posx ETV
vector 8 Scenario.node[3].veinsmobility posy ETV
vector 9 Scenario.node[4].veinsmobility posx ETV
vector 10 Scenario.node[4].veinsmobility posy ETV
vector 11 Scenario.node[0].veinsmobility acceleration ETV
vector 12 Scenario.node[0].veinsmobility co2emission ETV
vector 13 Scenario.node[1].veinsmobility speed ETV
vector 14 Scenario.node[2].veinsmobility speed ETV
vector 15 Scenario.node[5].veinsmobility posx ETV
vector 16 Scenario.node[5].veinsmobility posy ETV
vector 17 Scenario.node[6].veinsmobility posx ETV
vector 18 Scenario.node[6].veinsmobility posy ETV
vector 19 Scenario.node[1].veinsmobility acceleration ETV
vector 20 Scenario.node[1].veinsmobility co2emission ETV
vector 21 Scenario.node[2].veinsmobility acceleration ETV
vector 22 Scenario.node[2].veinsmobility co2emission ETV
vector 23 Scenario.node[3].veinsmobility speed ETV
vector 24 Scenario.node[4].veinsmobility speed ETV
vector 25 Scenario.node[7].veinsmobility posx ETV
vector 26 Scenario.node[7].veinsmobility posy ETV
vector 27 Scenario.node[8].veinsmobility posx ETV
vector 28 Scenario.node[8].veinsmobility posy ETV
vector 29 Scenario.node[9].veinsmobility posx ETV
vector 30 Scenario.node[9].veinsmobility posy ETV
vector 31 Scenario.node[3].veinsmobility acceleration ETV
vector 32 Scenario.node[3].veinsmobility co2emission ETV
vector 33 Scenario.node[4].veinsmobility acceleration ETV
vector 34 Scenario.node[4].veinsmobility co2emission ETV
vector 35 Scenario.node[5].veinsmobility speed ETV
vector 36 Scenario.node[6].veinsmobility speed ETV
vector 37 Scenario.node[10].veinsmobility posx ETV
vector 38 Scenario.node[10].veinsmobility posy ETV
vector 39 Scenario.node[11].veinsmobility posx ETV
vector 40 Scenario.node[11].veinsmobility posy ETV
vector 41 Scenario.node[5].veinsmobility acceleration ETV
vector 42 Scenario.node[5].veinsmobility co2emission ETV
vector 43 Scenario.node[6].veinsmobility acceleration ETV
vector 44 Scenario.node[6].veinsmobility co2emission ETV
vector 45 Scenario.node[7].veinsmobility speed ETV
vector 46 Scenario.node[8].veinsmobility speed ETV
vector 47 Scenario.node[9].veinsmobility speed ETV
vector 48 Scenario.node[12].veinsmobility posx ETV
vector 49 Scenario.node[12].veinsmobility posy ETV
vector 50 Scenario.node[13].veinsmobility posx ETV
vector 51 Scenario.node[13].veinsmobility posy ETV
vector 52 Scenario.node[7].veinsmobility acceleration ETV
vector 53 Scenario.node[7].veinsmobility co2emission ETV
vector 54 Scenario.node[8].veinsmobility acceleration ETV
vector 55 Scenario.node[8].veinsmobility co2emission ETV
vector 56 Scenario.node[9].veinsmobility acceleration ETV
vector 57 Scenario.node[9].veinsmobility co2emission ETV
vector 58 Scenario.node[10].veinsmobility speed ETV
vector 59 Scenario.node[11].veinsmobility speed ETV
vector 60 Scenario.node[14].veinsmobility posx ETV
vector 61 Scenario.node[14].veinsmobility posy ETV
vector 62 Scenario.node[15].veinsmobility posx ETV
vector 63 Scenario.node[15].veinsmobility posy ETV
vector 64 Scenario.node[10].veinsmobility acceleration ETV
vector 65 Scenario.node[10].veinsmobility co2emission ETV
vector 66 Scenario.node[11].veinsmobility acceleration ETV
vector 67 Scenario.node[11].veinsmobility co2emission ETV
vector 68 Scenario.node[12].veinsmobility speed ETV
vector 69 Scenario.node[13].veinsmobility speed ETV
vector 70 Scenario.node[16].veinsmobility posx ETV
vector 71 Scenario.node[16].veinsmobility posy ETV
vector 72 Scenario.node[17].veinsmobility posx ETV
vector 73 Scenario.node[17].veinsmobility posy ETV
vector 74 Scenario.node[18].veinsmobility posx ETV
vector 75 Scenario.node[18].veinsmobility posy ETV
vector 76 Scenario.node[12].veinsmobility acceleration ETV
vector 77 Scenario.node[12].veinsmobility co2emission ETV
vector 78 Scenario.node[13].veinsmobility acceleration ETV
vector 79 Scenario.node[13].veinsmobility co2emission ETV
vector 80 Scenario.node[14].veinsmobility speed ETV
vector 81 Scenario.node[15].veinsmobility speed ETV
vector 82 Scenario.node[19].veinsmobility posx ETV
vector 83 Scenario.node[19].veinsmobility posy ETV
vector 84 Scenario.node[20].veinsmobility posx ETV
vector 85 Scenario.node[20].veinsmobility posy ETV
vector 86 Scenario.node[14].veinsmobility acceleration ETV
vector 87 Scenario.node[14].veinsmobility co2emission ETV
vector 88 Scenario.node[15].veinsmobility acceleration ETV
vector 89 Scenario.node[15].veinsmobility co2emission ETV
vector 90 Scenario.node[16].veinsmobility speed ETV
vector 91 Scenario.node[17].veinsmobility speed ETV
vector 92 Scenario.node[18].veinsmobility speed ETV
vector 93 Scenario.node[21].veinsmobility posx ETV
vector 94 Scenario.node[21].veinsmobility posy ETV
vector 95 Scenario.node[22].veinsmobility posx ETV
vector 96 Scenario.node[22].veinsmobility posy ETV
vector 97 Scenario.node[16].veinsmobility acceleration ETV
vector 98 Scenario.node[16].veinsmobility co2emission ETV
vector 99 Scenario.node[17].veinsmobility acceleration ETV
vector 100 Scenario.node[17].veinsmobility co2emission ETV
vector 101 Scenario.node[18].veinsmobility acceleration ETV
vector 102 Scenario.node[18].veinsmobility co2emission ETV
vector 103 Scenario.node[19].veinsmobility speed ETV
vector 104 Scenario.node[20].veinsmobility speed ETV
vector 105 Scenario.node[23].veinsmobility posx ETV
vector 106 Scenario.node[23].veinsmobility posy ETV
vector 107 Scenario.node[24].veinsmobility posx ETV
vector 108 Scenario.node[24].veinsmobility posy ETV
vector 109 Scenario.node[25].veinsmobility posx ETV
vector 110 Scenario.node[25].veinsmobility posy ETV
vector 111 Scenario.node[19].veinsmobility acceleration ETV
vector 112 Scenario.node[19].veinsmobility co2emission ETV
vector 113 Scenario.node[20].veinsmobility acceleration ETV
vector 114 Scenario.node[20].veinsmobility co2emission ETV
vector 115 Scenario.node[21].veinsmobility speed ETV
vector 116 Scenario.node[22].veinsmobility speed ETV
vector 117 Scenario.node[26].veinsmobility posx ETV
vector 118 Scenario.node[26].veinsmobility posy ETV
vector 119 Scenario.node[27].veinsmobility posx ETV
vector 120 Scenario.node[27].veinsmobility posy ETV
vector 121 Scenario.node[21].veinsmobility acceleration ETV
vector 122 Scenario.node[21].veinsmobility co2emission ETV
vector 123 Scenario.node[22].veinsmobility acceleration ETV
vector 124 Scenario.node[22].veinsmobility co2emission ETV
vector 125 Scenario.node[23].veinsmobility speed ETV
vector 126 Scenario.node[24].veinsmobility speed ETV
vector 127 Scenario.node[25].veinsmobility speed ETV
vector 128 Scenario.node[28].veinsmobility posx ETV
vector 129 Scenario.node[28].veinsmobility posy ETV
vector 130 Scenario.node[29].veinsmobility posx ETV
vector 131 Scenario.node[29].veinsmobility posy ETV
vector 132 Scenario.node[23].veinsmobility acceleration ETV
vector 133 Scenario.node[23].veinsmobility co2emission ETV
vector 134 Scenario.node[24].veinsmobility acceleration ETV
vector 135 Scenario.node[24].veinsmobility co2emission ETV
vector 136 Scenario.node[25].veinsmobility acceleration ETV
vector 137 Scenario.node[25].veinsmobility co2emission ETV
vector 138 Scenario.node[26].veinsmobility speed ETV
vector 139 Scenario.node[27].veinsmobility speed ETV
vector 140 Scenario.node[30].veinsmobility posx ETV
vector 141 Scenario.node[30].veinsmobility posy ETV
vector 142 Scenario.node[31].veinsmobility posx ETV
vector 143 Scenario.node[31].veinsmobility posy ETV
vector 144 Scenario.node[26].veinsmobility acceleration ETV
vector 145 Scenario.node[26].veinsmobility co2emission ETV
vector 146 Scenario.node[27].veinsmobility acceleration ETV
vector 147 Scenario.node[27].veinsmobility co2emission ETV
vector 148 Scenario.node[28].veinsmobility speed ETV
vector 149 Scenario.node[29].veinsmobility speed ETV
vector 150 Scenario.node[32].veinsmobility posx ETV
vector 151 Scenario.node[32].veinsmobility posy ETV
vector 152 Scenario.node[33].veinsmobility posx ETV
vector 153 Scenario.node[33].veinsmobility posy ETV
vector 154 Scenario.node[34].veinsmobility posx ETV
vector 155 Scenario.node[34].veinsmobility posy ETV
vector 156 Scenario.node[28].veinsmobility acceleration ETV
vector 157 Scenario.node[28].veinsmobility co2emission ETV
vector 158 Scenario.node[29].veinsmobility acceleration ETV
vector 159 Scenario.node[29].veinsmobility co2emission ETV
vector 160 Scenario.node[30].veinsmobility speed ETV
vector 161 Scenario.node[31].veinsmobility speed ETV
vector 162 Scenario.node[35].veinsmobility posx ETV
vector 163 Scenario.node[35].veinsmobility posy ETV
vector 164 Scenario.node[36].veinsmobility posx ETV
vector 165 Scenario.node[36].veinsmobility posy ETV
vector 166 Scenario.node[30].veinsmobility acceleration ETV
vector 167 Scenario.node[30].veinsmobility co2emission ETV
vector 168 Scenario.node[31].veinsmobility acceleration ETV
vector 169 Scenario.node[31].veinsmobility co2emission ETV
vector 170 Scenario.node[32].veinsmobility speed ETV
vector 171 Scenario.node[33].veinsmobility speed ETV
vector 172 Scenario.node[34].veinsmobility speed ETV
vector 173 Scenario.node[37].veinsmobility posx ETV
vector 174 Scenario.node[37].veinsmobility posy ETV
vector 175 Scenario.node[38].veinsmobility posx ETV
vector 176 Scenario.node[38].veinsmobility posy ETV
vector 177 Scenario.node[32].veinsmobility acceleration ETV
vector 178 Scenario.node[32].veinsmobility co2emission ETV
vector 179 Scenario.node[33].veinsmobility acceleration ETV
vector 180 Scenario.node[33].veinsmobility co2emission ETV
vector 181 Scenario.node[34].veinsmobility acceleration ETV
vector 182 Scenario.node[34].veinsmobility co2emission ETV
vector 183 Scenario.node[35].veinsmobility speed ETV
vector 184 Scenario.node[36].veinsmobility speed ETV
vector 185 Scenario.node[39].veinsmobility posx ETV
vector 186 Scenario.node[39].veinsmobility posy ETV
vector 187 Scenario.node[40].veinsmobility posx ETV
vector 188 Scenario.node[40].veinsmobility posy ETV
vector 189 Scenario.node[35].veinsmobility acceleration ETV
vector 190 Scenario.node[35].veinsmobility co2emission ETV
vector 191 Scenario.node[36].veinsmobility acceleration ETV
vector 192 Scenario.node[36].veinsmobility co2emission ETV
vector 193 Scenario.node[37].veinsmobility speed ETV
vector 194 Scenario.node[38].veinsmobility speed ETV
vector 195 Scenario.node[41].veinsmobility posx ETV
vector 196 Scenario.node[41].veinsmobility posy ETV
vector 197 Scenario.node[42].veinsmobility posx ETV
vector 198 Scenario.node[42].veinsmobility posy ETV
vector 199 Scenario.node[43].veinsmobility posx ETV
vector 200 Scenario.node[43].veinsmobility posy ETV
vector 201 Scenario.node[37].veinsmobility acceleration ETV
vector 202 Scenario.node[37].veinsmobility co2emission ETV
vector 203 Scenario.node[38].veinsmobility acceleration ETV
vector 204 Scenario.node[38].veinsmobility co2emission ETV
vector 205 Scenario.node[39].veinsmobility speed ETV
vector 206 Scenario.node[40].veinsmobility speed ETV
vector 207 Scenario.node[44].veinsmobility posx ETV
vector 208 Scenario.node[44].veinsmobility posy ETV
vector 209 Scenario.node[45].veinsmobility posx ETV
vector 210 Scenario.node[45].veinsmobility posy ETV
vector 211 Scenario.node[39].veinsmobility acceleration ETV
vector 212 Scenario.node[39].veinsmobility co2emission ETV
vector 213 Scenario.node[40].veinsmobility acceleration ETV
vector 214 Scenario.node[40].veinsmobility co2emission ETV
vector 215 Scenario.node[41].veinsmobility speed ETV
vector 216 Scenario.node[42].veinsmobility speed ETV
vector 217 Scenario.node[43].veinsmobility speed ETV
vector 218 Scenario.node[46].veinsmobility posx ETV
vector 219 Scenario.node[46].veinsmobility posy ETV
vector 220 Scenario.node[47].veinsmobility posx ETV
vector 221 Scenario.node[47].veinsmobility posy ETV
vector 222 Scenario.node[41].veinsmobility acceleration ETV
vector 223 Scenario.node[41].veinsmobility co2emission ETV
vector 224 Scenario.node[42].veinsmobility acceleration ETV
vector 225 Scenario.node[42].veinsmobility co2emission ETV
vector 226 Scenario.node[43].veinsmobility acceleration ETV
vector 227 Scenario.node[43].veinsmobility co2emission ETV
vector 228 Scenario.node[44].veinsmobility speed ETV
vector 229 Scenario.node[45].veinsmobility speed ETV
vector 230 Scenario.node[48].veinsmobility posx ETV
vector 231 Scenario.node[48].veinsmobility posy ETV
vector 232 Scenario.node[49].veinsmobility posx ETV
vector 233 Scenario.node[49].veinsmobility posy ETV
vector 234 Scenario.node[50].veinsmobility posx ETV
vector 235 Scenario.node[50].veinsmobility posy ETV
vector 236 Scenario.node[44].veinsmobility acceleration ETV
vector 237 Scenario.node[44].veinsmobility co2emission ETV
vector 238 Scenario.node[45].veinsmobility acceleration ETV
vector 239 Scenario.node[45].veinsmobility co2emission ETV
vector 240 Scenario.node[46].veinsmobility speed ETV
vector 241 Scenario.node[47].veinsmobility speed ETV
vector 242 Scenario.node[51].veinsmobility posx ETV
vector 243 Scenario.node[51].veinsmobility posy ETV
vector 244 Scenario.node[52].veinsmobility posx ETV
vector 245 Scenario.node[52].veinsmobility posy ETV
vector 246 Scenario.node[46].veinsmobility acceleration ETV
vector 247 Scenario.node[46].veinsmobility co2emission ETV
vector 248 Scenario.node[47].veinsmobility acceleration ETV
vector 249 Scenario.node[47].veinsmobility co2emission ETV
vector 250 Scenario.node[48].veinsmobility speed ETV
vector 251 Scenario.node[49].veinsmobility speed ETV
vector 252 Scenario.node[50].veinsmobility speed ETV
vector 253 Scenario.node[53].veinsmobility posx ETV
vector 254 Scenario.node[53].veinsmobility posy ETV
vector 255 Scenario.node[54].veinsmobility posx ETV
vector 256 Scenario.node[54].veinsmobility posy ETV
vector 257 Scenario.node[48].veinsmobility acceleration ETV
vector 258 Scenario.node[48].veinsmobility co2emission ETV
vector 259 Scenario.node[49].veinsmobility acceleration ETV
vector 260 Scenario.node[49].veinsmobility co2emission ETV
vector 261 Scenario.node[50].veinsmobility acceleration ETV
vector 262 Scenario.node[50].veinsmobility co2emission ETV
vector 263 Scenario.node[51].veinsmobility speed ETV
vector 264 Scenario.node[52].veinsmobility speed ETV
vector 265 Scenario.node[55].veinsmobility posx ETV
vector 266 Scenario.node[55].veinsmobility posy ETV
vector 267 Scenario.node[56].veinsmobility posx ETV
vector 268 Scenario.node[56].veinsmobility posy ETV
vector 269 Scenario.node[51].veinsmobility acceleration ETV
vector 270 Scenario.node[51].veinsmobility co2emission ETV
vector 271 Scenario.node[52].veinsmobility acceleration ETV
vector 272 Scenario.node[52].veinsmobility co2emission ETV
vector 273 Scenario.node[53].veinsmobility speed ETV
vector 274 Scenario.node[54].veinsmobility speed ETV
vector 275 Scenario.node[57].veinsmobility posx ETV
vector 276 Scenario.node[57].veinsmobility posy ETV
vector 277 Scenario.node[58].veinsmobility posx ETV
vector 278 Scenario.node[58].veinsmobility posy ETV
vector 279 Scenario.node[59].veinsmobility posx ETV
vector 280 Scenario.node[59].veinsmobility posy ETV
vector 281 Scenario.node[53].veinsmobility acceleration ETV
vector 282 Scenario.node[53].veinsmobility co2emission ETV
vector 283 Scenario.node[54].veinsmobility acceleration ETV
vector 284 Scenario.node[54].veinsmobility co2emission ETV
vector 285 Scenario.node[55].veinsmobility speed ETV
vector 286 Scenario.node[56].veinsmobility speed ETV
vector 287 Scenario.node[60].veinsmobility posx ETV
vector 288 Scenario.node[60].veinsmobility posy ETV
vector 289 Scenario.node[61].veinsmobility posx ETV
vector 290 Scenario.node[61].veinsmobility posy ETV
vector 291 Scenario.node[55].veinsmobility acceleration ETV
vector 292 Scenario.node[55].veinsmobility co2emission ETV
vector 293 Scenario.node[56].veinsmobility acceleration ETV
vector 294 Scenario.node[56].veinsmobility co2emission ETV
vector 295 Scenario.node[57].veinsmobility speed ETV
vector 296 Scenario.node[58].veinsmobility speed ETV
vector 297 Scenario.node[59].veinsmobility speed ETV
vector 298 Scenario.node[62].veinsmobility posx ETV
vector 299 Scenario.node[62].veinsmobility posy ETV
vector 300 Scenario.node[63].veinsmobility posx ETV
vector 301 Scenario.node[63].veinsmobility posy ETV
vector 302 Scenario.node[57].veinsmobility acceleration ETV
vector 303 Scenario.node[57].veinsmobility co2emission ETV
vector 304 Scenario.node[58].veinsmobility acceleration ETV
vector 305 Scenario.node[58].veinsmobility co2emission ETV
vector 306 Scenario.node[59].veinsmobility acceleration ETV
vector 307 Scenario.node[59].veinsmobility co2emission ETV
vector 308 Scenario.node[60].veinsmobility speed ETV
vector 309 Scenario.node[61].veinsmobility speed ETV
vector 310 Scenario.node[64].veinsmobility posx ETV
vector 311 Scenario.node[64].veinsmobility posy ETV
vector 312 Scenario.node[65].veinsmobility posx ETV
vector 313 Scenario.node[65].veinsmobility posy ETV
vector 314 Scenario.node[60].veinsmobility acceleration ETV
vector 315 Scenario.node[60].veinsmobility co2emission ETV
vector 316 Scenario.node[61].veinsmobility acceleration ETV
vector 317 Scenario.node[61].veinsmobility co2emission ETV
vector 318 Scenario.node[62].veinsmobility speed ETV
vector 319 Scenario.node[63].veinsmobility speed ETV
vector 320 Scenario.node[66].veinsmobility posx ETV
vector 321 Scenario.node[66].veinsmobility posy ETV
vector 322 Scenario.node[67].veinsmobility posx ETV
vector 323 Scenario.node[67].veinsmobility posy ETV
vector 324 Scenario.node[68].veinsmobility posx ETV
vector 325 Scenario.node[68].veinsmobility posy ETV
vector 326 Scenario.node[62].veinsmobility acceleration ETV
vector 327 Scenario.node[62].veinsmobility co2emission ETV
vector 328 Scenario.node[63].veinsmobility acceleration ETV
vector 329 Scenario.node[63].veinsmobility co2emission ETV
vector 330 Scenario.node[64].veinsmobility speed ETV
vector 331 Scenario.node[65].veinsmobility speed ETV
vector 332 Scenario.node[69].veinsmobility posx ETV
vector 333 Scenario.node[69].veinsmobility posy ETV
vector 334 Scenario.node[70].veinsmobility posx ETV
vector 335 Scenario.node[70].veinsmobility posy ETV
vector 336 Scenario.node[64].veinsmobility acceleration ETV
vector 337 Scenario.node[64].veinsmobility co2emission ETV
vector 338 Scenario.node[65].veinsmobility acceleration ETV
vector 339 Scenario.node[65].veinsmobility co2emission ETV
vector 340 Scenario.node[66].veinsmobility speed ETV
vector 341 Scenario.node[67].veinsmobility speed ETV
vector 342 Scenario.node[68].veinsmobility speed ETV
vector 343 Scenario.node[71].veinsmobility posx ETV
vector 344 Scenario.node[71].veinsmobility posy ETV
vector 345 Scenario.node[72].veinsmobility posx ETV
vector 346 Scenario.node[72].veinsmobility posy ETV
vector 347 Scenario.node[66].veinsmobility acceleration ETV
vector 348 Scenario.node[66].veinsmobility co2emission ETV
vector 349 Scenario.node[67].veinsmobility acceleration ETV
vector 350 Scenario.node[67].veinsmobility co2emission ETV
vector 351 Scenario.node[68].veinsmobility acceleration ETV
vector 352 Scenario.node[68].veinsmobility co2emission ETV
vector 353 Scenario.node[69].veinsmobility speed ETV
vector 354 Scenario.node[70].veinsmobility speed ETV
vector 355 Scenario.node[73].veinsmobility posx ETV
vector 356 Scenario.node[73].veinsmobility posy ETV
vector 357 Scenario.node[74].veinsmobility posx ETV
vector 358 Scenario.node[74].veinsmobility posy ETV
vector 359 Scenario.node[75].veinsmobility posx ETV
vector 360 Scenario.node[75].veinsmobility posy ETV
vector 361 Scenario.node[69].veinsmobility acceleration ETV
vector 362 Scenario.node[69].veinsmobility co2emission ETV
vector 363 Scenario.node[70].veinsmobility acceleration ETV
vector 364 Scenario.node[70].veinsmobility co2emission ETV
vector 365 Scenario.node[71].veinsmobility speed ETV
vector 366 Scenario.node[72].veinsmobility speed ETV
vector 367 Scenario.node[76].veinsmobility posx ETV
vector 368 Scenario.node[76].veinsmobility posy ETV
vector 369 Scenario.node[77].veinsmobility posx ETV
vector 370 Scenario.node[77].veinsmobility posy ETV
vector 371 Scenario.node[71].veinsmobility acceleration ETV
vector 372 Scenario.node[71].veinsmobility co2emission ETV
vector 373 Scenario.node[72].veinsmobility acceleration ETV
vector 374 Scenario.node[72].veinsmobility co2emission ETV
vector 375 Scenario.node[73].veinsmobility speed ETV
vector 376 Scenario.node[74].veinsmobility speed ETV
vector 377 Scenario.node[75].veinsmobility speed ETV
vector 378 Scenario.node[78].veinsmobility posx ETV
vector 379 Scenario.node[78].veinsmobility posy ETV
vector 380 Scenario.node[73].veinsmobility acceleration ETV
vector 381 Scenario.node[73].veinsmobility co2emission ETV
vector 382 Scenario.node[74].veinsmobility acceleration ETV
vector 383 Scenario.node[74].veinsmobility co2emission ETV
vector 384 Scenario.node[75].veinsmobility acceleration ETV
vector 385 Scenario.node[75].veinsmobility co2emission ETV
vector 386 Scenario.node[76].veinsmobility speed ETV
vector 387 Scenario.node[77].veinsmobility speed ETV
vector 388 Scenario.node[79].veinsmobility posx ETV
vector 389 Scenario.node[79].veinsmobility posy ETV
vector 390 Scenario.node[80].veinsmobility posx ETV
vector 391 Scenario.node[80].veinsmobility posy ETV
vector 392 Scenario.node[76].veinsmobility acceleration ETV
vector 393 Scenario.node[76].veinsmobility co2emission ETV
vector 394 Scenario.node[77].veinsmobility acceleration ETV
vector 395 Scenario.node[77].veinsmobility co2emission ETV
vector 396 Scenario.node[78].veinsmobility speed ETV
vector 397 Scenario.node[81].veinsmobility posx ETV
vector 398 Scenario.node[81].veinsmobility posy ETV
vector 399 Scenario.node[82].veinsmobility posx ETV
vector 400 Scenario.node[82].veinsmobility posy ETV
vector 401 Scenario.node[83].veinsmobility posx ETV
vector 402 Scenario.node[83].veinsmobility posy ETV
vector 403 Scenario.node[78].veinsmobility acceleration ETV
vector 404 Scenario.node[78].veinsmobility co2emission ETV
vector 405 Scenario.node[79].veinsmobility speed ETV
vector 406 Scenario.node[80].veinsmobility speed ETV
vector 407 Scenario.node[84].veinsmobility posx ETV
vector 408 Scenario.node[84].veinsmobility posy ETV
vector 409 Scenario.node[85].veinsmobility posx ETV
vector 410 Scenario.node[85].veinsmobility posy ETV
vector 411 Scenario.node[79].veinsmobility acceleration ETV
vector 412 Scenario.node[79].veinsmobility co2emission ETV
vector 413 Scenario.node[80].veinsmobility acceleration ETV
vector 414 Scenario.node[80].veinsmobility co2emission ETV
vector 415 Scenario.node[81].veinsmobility speed ETV
vector 416 Scenario.node[82].veinsmobility speed ETV
vector 417 Scenario.node[83].veinsmobility speed ETV
vector 418 Scenario.node[86].veinsmobility posx ETV
vector 419 Scenario.node[86].veinsmobility posy ETV
vector 420 Scenario.node[87].veinsmobility posx ETV
vector 421 Scenario.node[87].veinsmobility posy ETV
vector 422 Scenario.node[81].veinsmobility acceleration ETV
vector 423 Scenario.node[81].veinsmobility co2emission ETV
vector 424 Scenario.node[82].veinsmobility acceleration ETV
vector 425 Scenario.node[82].veinsmobility co2emission ETV
vector 426 Scenario.node[83].veinsmobility acceleration ETV
vector 427 Scenario.node[83].veinsmobility co2emission ETV
vector 428 Scenario.node[84].veinsmobility speed ETV
vector 429 Scenario.node[85].veinsmobility speed ETV
vector 430 Scenario.node[88].veinsmobility posx ETV
vector 431 Scenario.node[88].veinsmobility posy ETV
vector 432 Scenario.node[89].veinsmobility posx ETV
vector 433 Scenario.node[89].veinsmobility posy ETV
vector 434 Scenario.node[90].veinsmobility posx ETV
vector 435 Scenario.node[90].veinsmobility posy ETV
vector 436 Scenario.node[84].veinsmobility acceleration ETV
vector 437 Scenario.node[84].veinsmobility co2emission ETV
vector 438 Scenario.node[85].veinsmobility acceleration ETV
vector 439 Scenario.node[85].veinsmobility co2emission ETV
vector 440 Scenario.node[86].veinsmobility speed ETV
vector 441 Scenario.node[87].veinsmobility speed ETV
vector 442 Scenario.node[91].veinsmobility posx ETV
vector 443 Scenario.node[91].veinsmobility posy ETV
vector 444 Scenario.node[92].veinsmobility posx ETV
vector 445 Scenario.node[92].veinsmobility posy ETV
vector 446 Scenario.node[86].veinsmobility acceleration ETV
vector 447 Scenario.node[86].veinsmobility co2emission ETV
vector 448 Scenario.node[87].veinsmobility acceleration ETV
vector 449 Scenario.node[87].veinsmobility co2emission ETV
vector 450 Scenario.node[88].veinsmobility speed ETV
vector 451 Scenario.node[89].veinsmobility speed ETV
vector 452 Scenario.node[90].veinsmobility speed ETV
vector 453 Scenario.node[93].veinsmobility posx ETV
vector 454 Scenario.node[93].veinsmobility posy ETV
vector 455 Scenario.node[94].veinsmobility posx ETV
vector 456 Scenario.node[94].veinsmobility posy ETV
vector 457 Scenario.node[88].veinsmobility acceleration ETV
vector 458 Scenario.node[88].veinsmobility co2emission ETV
vector 459 Scenario.node[89].veinsmobility acceleration ETV
vector 460 Scenario.node[89].veinsmobility co2emission ETV
vector 461 Scenario.node[90].veinsmobility acceleration ETV
vector 462 Scenario.node[90].veinsmobility co2emission ETV
vector 463 Scenario.node[91].veinsmobility speed ETV
vector 464 Scenario.node[92].veinsmobility speed ETV
vector 465 Scenario.node[95].veinsmobility posx ETV
vector 466 Scenario.node[95].veinsmobility posy ETV
vector 467 Scenario.node[96].veinsmobility posx ETV
vector 468 Scenario.node[96].veinsmobility posy ETV
vector 469 Scenario.node[91].veinsmobility acceleration ETV
vector 470 Scenario.node[91].veinsmobility co2emission ETV
vector 471 Scenario.node[92].veinsmobility acceleration ETV
vector 472 Scenario.node[92].veinsmobility co2emission ETV
vector 473 Scenario.node[93].veinsmobility speed ETV
vector 474 Scenario.node[94].veinsmobility speed ETV
vector 475 Scenario.node[97].veinsmobility posx ETV
vector 476 Scenario.node[97].veinsmobility posy ETV
vector 477 Scenario.node[98].veinsmobility posx ETV
vector 478 Scenario.node[98].veinsmobility posy ETV
vector 479 Scenario.node[93].veinsmobility acceleration ETV
vector 480 Scenario.node[93].veinsmobility co2emission ETV
vector 481 Scenario.node[94].veinsmobility acceleration ETV
vector 482 Scenario.node[94].veinsmobility co2emission ETV
vector 483 Scenario.node[95].veinsmobility speed ETV
vector 484 Scenario.node[96].veinsmobility speed ETV
vector 485 Scenario.node[99].veinsmobility posx ETV
vector 486 Scenario.node[99].veinsmobility posy ETV
vector 487 Scenario.node[100].veinsmobility posx ETV
vector 488 Scenario.node[100].veinsmobility posy ETV
vector 489 Scenario.node[95].veinsmobility acceleration ETV
vector 490 Scenario.node[95].veinsmobility co2emission ETV
vector 491 Scenario.node[96].veinsmobility acceleration ETV
vector 492 Scenario.node[96].veinsmobility co2emission ETV
vector 493 Scenario.node[97].veinsmobility speed ETV
vector 494 Scenario.node[98].veinsmobility speed ETV
vector 495 Scenario.node[101].veinsmobility posx ETV
vector 496 Scenario.node[101].veinsmobility posy ETV
vector 497 Scenario.node[102].veinsmobility posx ETV
vector 498 Scenario.node[102].veinsmobility posy ETV
vector 499 Scenario.node[97].veinsmobility acceleration ETV
vector 500 Scenario.node[97].veinsmobility co2emission ETV
vector 501 Scenario.node[98].veinsmobility acceleration ETV
vector 502 Scenario.node[98].veinsmobility co2emission ETV
vector 503 Scenario.node[99].veinsmobility speed ETV
vector 504 Scenario.node[100].veinsmobility speed ETV
0	30735 1242 2 199120 1 47 47 3215.0621452658 3629.8204743811 161941.91869945 558988097.71005
1	31977 1239 2 199120 1 47 47 3049.594001058 3131.4656373893 145405.52479415 449873167.55682
2	33216 1214 21 199120 2 47 46 6877.8942639847 7212.2148593444 324456.0632136 2289039112.1424
3	34430 1219 21 199120 2 47 46 3012.6589218262 3242.0954184736 142977.44704064 444641393.43245
4	35649 1216 21 199120 2 47 46 6136.3569402558 6334.812561679 285690.6264072 1774435536.9153
5	36865 1214 21 199120 2 47 46 3271.397448049 3640.6227449235 160559.25571257 561008241.78502
6	38079 1219 21 199120 2 47 46 3.7178716257677 15.493526366323 582.70440574431 7896.4955210491
7	39298 1196 90 199120 3 47 45 4108.1115522442 4277.5150731722 186476.70903547 772893523.73804
8	40494 1193 90 199120 3 47 45 3116.3918055386 3195.6395730453 142858.05379269 453559541.20645
9	41687 1189 90 199120 3 47 45 4628.469816053 4801.231508283 212694.42264249 1005461657.2014
10	42876 1239 90 199120 3 47 45 3529.9254104898 3862.2068057964 167112.54383468 621038068.61184
11	44115 1263 90 199120 3 47 45 -4.5 2.5533435415709 -4.8061899736767 143.7985791385
12	45378 1080 90 199120 3 47 45 0.973 10.954090822367 142.90686649359 774.38336459968
13	46458 1239 90 199120 3 47 45 1.529956558696 14.364200878603 476.57287575581 5583.9291588645
14	47697 1241 90 199120 3 47 45 1.9318736586953 18.392439493945 528.44263576308 7073.1989418406
15	48938 1215 213 199120 4 47 44 3454.291196958 3685.8560163837 157186.23774261 561838134.3988
16	50153 1212 213 199120 4 47 44 1444.792961635 1862.2007126442 70090.903045075 112143263.72732
17	51365 1212 213 199120 4 47 44 6235.0284050757 6655.7244326577 284335.14772409 1838264062.3464
18	52577 1212 213 199120 4 47 44 2240.5263778958 2529.4074749062 104643.75000871 249368795.97981
19	53789 1232 213 199120 4 47 44 -4.5 2.5660466220463 8.127001629346 166.08009273694
20	55021 1104 213 199120 4 47 44 0.973 9.4224274822007 156.44092735267 835.02877237596
21	56125 1240 213 199120 4 47 44 -4.5 2.5895389665384 16.46056583525 134.49628864947
22	57365 1085 213 199120 4 47 44 0.973 10.122172512602 177.79641875092 1096.3535381385
23	58450 937 213 199120 4 47 44 0 14.08519838587 195.81899761859 2390.5318631959
24	59387 1211 213 199120 4 47 44 1.4645417755703 12.134266915863 426.6028923079 4459.4619825251
25	60598 1185 351 199120 5 47 43 8223.1070658366 8500.674190467 359201.96269901 3000951673.4233
26	61783 1187 351 199120 5 47 43 2282.1026741272 2429.7297373072 101229.65259735 238411379.66169
27	62970 1187 351 199120 5 47 43 6722.3045864117 7132.6868770621 298582.82564244 2073993608.1506
28	64157 1192 351 199120 5 47 43 2999.1816101288 3218.4321876283 134908.60236914 423389039.27197
29	65349 1192 351 199120 5 47 43 6444.8789378332 6584.8045406949 279640.98470312 1818671905.5426
30	66541 1186 351 199120 5 47 43 3066.7674340614 3335.4165349833 137937.47303147 442725018.14498
31	67727 952 351 199120 5 47 43 -4.5 2.5901939699426 -2.5865135943983 79.868130143953
32	68679 923 351 199120 5 47 43 0.973 10.168244903929 81.580955372105 311.85091028413
33	69602 1234 351 199120 5 47 43 -4.2275781610631 2.5855512305163 9.8289234656295 117.31433016092
34	70836 1053 351 199120 5 47 43 0.973 7.5081971694071 130.13920551131 591.75184739327
35	71889 1191 351 199120 5 47 43 2.1130978513975 30.894136996244 597.67970624038 10189.982267212
36	73080 1190 351 199120 5 47 43 2.2737992957234 20.999152073591 575.52930754944 9144.1061941995
37	74270 1167 569 199120 6 47 42 2747.8931846866 3201.3137741424 124564.52778417 370247021.63881
38	75437 1160 569 199120 6 47 42 1120.1121960454 1200.5041244762 48728.617003507 56556892.36856
39	76597 1167 569 199120 6 47 42 4027.8296779619 4116.3679893638 171943.05980265 703941506.84474
40	77764 1163 569 199120 6 47 42 1840.0386192487 2142.4183208053 82413.625338383 162249892.73548
41	78927 1164 569 199120 6 47 42 -4.5 2.5407174649648 28.781039144847 159.30959298045
42	80091 1085 569 199120 6 47 42 0.973 21.464031798038 263.33239850169 2713.0914596036
43	81176 1176 569 199120 6 47 42 -4.5 2.5434896687279 12.538899929492 157.23543956174
44	82352 1055 569 199120 6 47 42 0.973 12.028119480107 189.5645151781 1290.7478215495
45	83407 1167 569 199120 6 47 42 2.208746208949 16.627951431579 402.30386036031 4542.0330154999
46	84574 1164 569 199120 6 47 42 6.3102677509202 27.97802160401 602.3050171677 9736.0053010538
47	85738 1176 569 199120 6 47 42 0.0012145169892309 17.822482680983 307.65088861226 3144.1829525794
48	86914 1139 895 199120 7 47 41 5937.0581135842 6125.4983044236 246879.31522166 1486691489.9029
49	88053 1141 895 199120 7 47 41 2348.7265777778 2664.6034901129 102582.8769149 257054699.52286
50	89194 1142 895 199120 7 47 41 3695.4183047158 4097.2462067901 159998.42318322 625004479.63929
51	90336 1141 895 199120 7 47 41 3015.3661557879 3199.1297790285 126704.1139554 391723170.56431
52	91477 1172 895 199120 7 47 41 -4.5 2.596795658418 4.8298884989142 105.67380577047
53	92649 991 895 199120 7 47 41 0.95599883896174 12.585356377766 120.66018414034 623.69422335073
54	93640 1157 895 199120 7 47 41 -4.5 2.5069083599607 -0.78681269052902 161.55530463059
55	94797 1014 895 199120 7 47 41 0.973 20.108350439665 193.1505597104 1989.6826503853
56	95811 1129 895 199120 7 47 41 -4.5 2.5651542095933 16.345370660827 230.0237490768
57	96940 1028 895 199120 7 47 41 0.973 13.510624561329 170.26370662281 1100.5663404544
58	97968 1143 895 199120 7 47 41 1.5972831639228 15.628062252489 488.54201582692 6414.5640879977
59	99111 1141 895 199120 7 47 41 1.5810179376742 13.099337877062 404.91398373874 4424.9731340189
60	100252 1112 1338 199120 8 47 40 3070.3680336171 3375.641649016 129773.39446991 421522107.31023
61	101364 1116 1338 199120 8 47 40 2906.543362919 3415.8930566071 127299.03326031 406685298.38664
62	102480 1116 1338 199120 8 47 40 4291.6280358668 4525.8552903936 177709.17894505 789886154.24878
63	103596 1118 1338 199120 8 47 40 3111.9610871026 3165.0470950296 125073.63350966 391098306.28447
64	104714 1137 1338 199120 8 47 40 -4.5 2.5730224694125 12.874902680396 137.51955619391
65	105851 975 1338 199120 8 47 40 0.973 10.161804820978 160.79060364201 953.83507418209
66	106826 1139 1338 199120 8 47 40 -4.5 2.5366576599656 7.3467617244812 97.445526428967
67	107965 997 1338 199120 8 47 40 0.973 8.0126636227022 121.40651696664 517.39229599054
68	108962 1116 1338 199120 8 47 40 1.5165522359312 19.469979780959 436.46856615615 5358.0836632379
69	110078 1120 1338 199120 8 47 40 0.023441615691137 13.651235990699 461.49573182024 5715.358340084
70	111198 1087 1889 199120 9 47 39 6214.9555095604 6403.2603688221 246838.07909788 1562463631.377
71	112285 1087 1889 199120 9 47 39 1298.005031868 1659.2944011017 56720.919759182 82901268.66918
72	113372 1092 1889 199120 9 47 39 4982.1023851263 5231.5590787208 199406.98192734 1019799954.9252
73	114464 1089 1889 199120 9 47 39 3197.0210101514 3349.8080912968 126483.87400314 410281315.27048
74	115553 1092 1889 199120 9 47 39 6614.1395936258 6785.1710370249 261498.72059394 1753487001.1472
75	116645 1088 1889 199120 9 47 39 1427.3263081071 1693.7128732374 58922.479712091 89201869.878885
76	117733 1080 1889 199120 9 47 39 -4.5 2.5648112070514 7.4426965481833 152.32229000631
77	118813 980 1889 199120 9 47 39 0.973 12.509436427066 149.94313004069 961.40021931505
78	119793 1110 1889 199120 9 47 39 -4.5 2.529327815515 -13.204406133544 98.384705541204
79	120903 912 1889 199120 9 47 39 0.973 8.6634850784263 91.732189422586 357.53992253946
80	121815 1086 1889 199120 9 47 39 0 28.816118912372 614.81897694914 14466.350848215
81	122901 916 1889 199120 9 47 39 0 24.285696739221 267.60898288238 4210.4320929986
82	123817 1061 2332 199120 10 47 38 7691.264689633 7974.0672576469 297834.91536153 2334670837.9666
83	124878 1061 2332 199120 10 47 38 2343.7987400123 2632.1599519907 94740.978428022 236529807.90845
84	125939 1063 2332 199120 10 47 38 2729.4730315513 2981.338340543 108953.0026557 312658770.39229
85	127002 1065 2332 199120 10 47 38 1429.1297448887 1605.320199632 57345.714698182 86660615.81982
86	128067 1061 2332 199120 10 47 38 -4.5 2.5926332155941 -1.8890440943418 169.86626742493
87	129128 959 2332 199120 10 47 38 -0.53280408952801 18.259160805224 203.99264987808 2122.4980436013
88	130087 899 2332 199120 10 47 38 -4.5 2.5011860015104 -1.754513483448 144.30406102162
89	130986 855 2332 199120 10 47 38 0.973 17.985639547509 132.03692839555 1151.1682495432
90	131841 1063 2332 199120 10 47 38 2.4732063131174 14.67252626812 447.22605524295 5733.2986367436
91	132904 1063 2332 199120 10 47 38 1.7215491539333 11.019147643096 331.05465504576 3100.5087489998
92	133967 1062 2332 199120 10 47 38 1.8217439678498 29.88658460624 494.1756095613 8207.3002969673
93	135029 1037 3129 199120 11 47 37 8367.9818062403 8667.9639153257 315074.32822337 2683292637.7467
94	136066 1037 3129 199120 11 47 37 4005.3708658271 4133.1830299591 151133.35213322 617380138.41759
95	137103 1037 3129 199120 11 47 37 5093.362177776 5265.4818903813 192544.32256331 1002073829.603
96	138140 1037 3129 199120 11 47 37 5040.4731866277 5310.6276325186 191226.06067258 988552079.20314
97	139177 1072 3129 199120 11 47 37 -4.3959303172538 2.4204288027249 11.827744194953 78.88938483034
98	140249 915 3129 199120 11 47 37 0.973 8.7312952994379 131.14194734039 689.72256165824
99	141164 1088 3129 199120 11 47 37 -4.4478090478689 2.5418741665548 8.6757795404629 54.555781705102
100	142252 996 3129 199120 11 47 37 0.973 7.2001650786187 89.541521440113 302.42094725463
101	143248 1072 3129 199120 11 47 37 -4.5 2.5244913056027 28.06484063839 144.99156078438
102	144320 986 3129 199120 11 47 37 0.973 18.670481326393 232.07870779758 2352.6226796454
103	145306 1074 3129 199120 11 47 37 1.3205505888676 12.983723801704 403.88248665002 4718.7393852731
104	146380 1074 3129 199120 11 47 37 2.0578714020317 16.407924690653 425.72171406562 5581.6119781184
105	147454 1043 3947 199120 12 47 36 3895.3278028796 4125.997840805 143704.09490756 573853831.8182
106	148497 1043 3947 199120 12 47 36 4712.7644384373 5121.401236476 177863.36598051 879369812.59032
107	149540 1044 3947 199120 12 47 36 2684.6522580015 2804.7726816285 97700.93971307 265193711.1826
108	150584 1043 3947 199120 12 47 36 2032.2962855601 2624.4255184282 82786.796448156 191653005.28873
109	151627 1046 3947 199120 12 47 36 5822.9534347582 6029.2475102017 215350.70303174 1288369235.9295
110	152673 1044 3947 199120 12 47 36 3073.3635406839 3287.9223664281 115932.32549997 373558549.94502
111	153717 1065 3947 199120 12 47 36 -4.5 2.475277706515 2.6878577254881 89.76332187454
112	154782 906 3947 199120 12 47 36 0.973 8.3349982221081 102.93594638897 452.92487984831
113	155688 1058 3947 199120 12 47 36 -4.5 2.5998513045954 14.350053288622 145.58820335241
114	156746 988 3947 199120 12 47 36 0.973 10.257756086678 155.84822687726 982.12550422046
115	157734 1045 3947 199120 12 47 36 6.0775563887199 12.224423788254 395.60881124674 4446.4244876548
116	158779 1045 3947 199120 12 47 36 1.4578180810902 13.831113988474 407.70715053212 4993.387815081
117	159824 1013 4933 199120 13 47 35 5857.970105282 6214.7407377496 209528.51798139 1254708767.8609
118	160837 1015 4933 199120 13 47 35 2267.905428196 2475.2404290769 82081.368182464 192608549.93812
119	161852 1016 4933 199120 13 47 35 3510.9426947598 3662.3345744181 125023.0104736 446708605.55646
120	162868 1017 4933 199120 13 47 35 3105.5660252387 3356.9383119931 113259.94255664 366694150.24879
121	163885 1065 4933 199120 13 47 35 -3.9161161888624 1.8668848487083 -0.32334671097342 30.020819270766
122	164950 909 4933 199120 13 47 35 0.973 6.2854098160587 77.747111446339 237.41945368286
123	165859 1048 4933 199120 13 47 35 -4.5 2.5850412519183 11.354346013266 78.069888793725
124	166907 921 4933 199120 13 47 35 0.973 9.2236927495602 107.92197435731 515.21204406938
125	167828 1018 4933 199120 13 47 35 1.652282136376 16.630491024213 478.97058736221 7143.2959143508
126	168846 1019 4933 199120 13 47 35 2.3290013018763 26.006952500365 611.45382454892 12422.967504003
127	169865 1019 4933 199120 13 47 35 2.0700068679173 14.86027424406 410.43045837202 5285.6832468327
128	170884 986 6338 199120 14 47 34 3610.4068260177 3941.0651938596 127702.67519783 480011237.59823
129	171870 989 6338 199120 14 47 34 2859.115090518 3105.9625090187 101382.44964575 302516409.75504
130	172859 988 6338 199120 14 47 34 3768.4002290392 3863.9251256794 130267.59087828 499138228.14472
131	173847 988 6338 199120 14 47 34 4419.0327746213 4501.7939205077 152128.29863389 680706567.4201
132	174835 1038 6338 199120 14 47 34 -1.081190062454 2.3779299757211 13.730350462747 36.638249843928
133	175873 933 6338 199120 14 47 34 0.973 10.724335838593 113.38105100459 570.57110938009
134	176806 967 6338 199120 14 47 34 -4.5 2.5953907844843 23.183218688609 153.33959445235
135	177773 950 6338 199120 14 47 34 0.973 15.266899489341 246.25438726882 2342.4795502641
136	178723 1019 6338 199120 14 47 34 -4.5 2.5280241468223 11.825813722943 91.519857337636
137	179742 912 6338 199120 14 47 34 0.973 9.7207653610597 119.8799969524 637.55111200293
138	180654 989 6338 199120 14 47 34 2.3995883058989 26.92906635077 492.27740270646 8995.5351773972
139	181643 989 6338 199120 14 47 34 2.0045285689412 14.132625682522 350.06420104709 3954.4990117116
140	182632 962 7648 199120 15 47 33 6512.6226409327 6871.6281535995 220512.68667975 1473983628.1634
141	183594 960 7648 199120 15 47 33 2172.3648621933 2423.3454939814 76197.157104945 176212357.80581
142	184554 959 7648 199120 15 47 33 3297.1993592659 3925.1096938514 116175.21183115 410279423.93017
143	185513 963 7648 199120 15 47 33 3280.206469692 3439.8536207597 110997.78190666 373420496.67205
144	186476 987 7648 199120 15 47 33 -3.7978171190373 2.5693215192063 24.008953892805 91.105976616172
145	187463 910 7648 199120 15 47 33 0.973 17.405581448003 186.09454590084 1709.1069703226
146	188373 978 7648 199120 15 47 33 -4.5 2.4673950158292 5.5349210378248 130.65855379245
147	189351 833 7648 199120 15 47 33 0.973 10.35550427491 120.22422859851 701.39114024263
148	190184 960 7648 199120 15 47 33 2.3114088772098 14.336348356654 415.41700924624 5496.6346141484
149	191144 963 7648 199120 15 47 33 0 19.130834302205 233.08491254142 2881.5577139315
150	192107 931 9524 199120 16 47 32 5822.8030347938 5971.2583555714 188484.80725609 1110268798.2196
151	193038 931 9524 199120 16 47 32 5108.2107731959 5301.4358683657 166490.93518621 866386714.68978
152	193969 937 9524 199120 16 47 32 5101.9405511159 5228.9365347873 165728.59740934 858363764.10243
153	194906 934 9524 199120 16 47 32 2763.3064743254 2919.2831314249 90179.273988694 254221680.4467
154	195840 931 9524 199120 16 47 32 5534.7317092175 5582.9194297537 177895.9463749 988974396.89111
155	196771 932 9524 199120 16 47 32 29.900196715175 450.33730480811 7684.9487050809 2347059.9248924
156	197703 969 9524 199120 16 47 32 -0.96035098540597 2.5282658430282 11.229198776044 31.128614496675
157	198672 845 9524 199120 16 47 32 0.973 7.5370184566586 96.437904231276 419.61840143861
158	199517 973 9524 199120 16 47 32 -4.1184273235422 2.5735996489879 16.68040523491 135.88376212808
159	200490 842 9524 199120 16 47 32 0.973 13.395476864074 139.12892743961 1089.2252033405
160	201332 934 9524 199120 16 47 32 2.0997949530138 25.412714981961 486.58465773187 9002.3900930596
161	202266 931 9524 199120 16 47 32 2.5672767461976 32.70018603914 715.43696826747 18910.990505393
162	203197 906 10952 199120 17 47 31 6801.6859069521 7047.210087668 215130.89193007 1493110170.7954
163	204103 908 10952 199120 17 47 31 1395.5324457597 1537.4885096435 45336.624502523 66364758.327886
164	205011 904 10952 199120 17 47 31 4374.4581823346 4536.3252531879 139130.49414697 624493825.83553
165	205915 906 10952 199120 17 47 31 1356.7533802836 1506.8848596436 44760.266613763 64714919.551915
166	206821 903 10952 199120 17 47 31 -4.5 2.4214529862395 17.804133213881 149.08145355521
167	207724 856 10952 199120 17 47 31 0.20402768177364 16.896251675477 198.34171721423 1847.8132212127
168	208580 929 10952 199120 17 47 31 -4.3802869096558 2.558692760556 29.903852816606 90.165461440342
169	209509 897 10952 199120 17 47 31 0.973 23.654323731588 271.72783844513 3382.7872807728
170	210406 905 10952 199120 17 47 31 1.5386003302643 11.61587293146 265.91519251879 2530.1747005759
171	211311 906 10952 199120 17 47 31 2.2974531752989 16.933205331989 316.64456343597 3734.1800803286
172	212217 908 10952 199120 17 47 31 13.007747411439 14.300398178832 423.19339767175 5781.9716754508
173	213125 879 12667 199120 18 47 30 8841.2369610645 9243.608473812 271353.1175789 2454961450.8588
174	214004 873 12667 199120 18 47 30 1922.3006068179 2033.9695121724 58873.931815976 115559604.60103
175	214877 877 12667 199120 18 47 30 8097.2661628778 8252.2864588702 244911.56760076 1999448851.0592
176	215754 874 12667 199120 18 47 30 2925.6377291758 3153.2692392738 91008.447229988 276225424.13014
177	216628 903 12667 199120 18 47 30 -4.3039885542821 2.1809670126531 7.6968381808139 68.744183698023
178	217531 780 12667 199120 18 47 30 0.973 6.2582866069511 82.948071699546 317.72079994712
179	218311 887 12667 199120 18 47 30 -4.5 2.5851815555245 6.5745172761987 145.39927199449
180	219198 767 12667 199120 18 47 30 0.973 9.0767952095196 116.69612562844 695.34956355383
181	219965 925 12667 199120 18 47 30 -0.98645002681296 1.156511152559 0.24899247167632 11.729277407045
182	220890 767 12667 199120 18 47 30 0.973 6.0118791110376 74.988435522519 265.45486037575
183	221657 878 12667 199120 18 47 30 2.4864454656141 21.984509572955 337.45175353972 4436.1368961273
184	222535 876 12667 199120 18 47 30 1.6980901245028 14.58936854508 316.23413394375 3716.5688806244
185	223411 850 14534 199120 19 47 29 6656.2475624024 6850.9130605487 196080.17501218 1325880431.8797
186	224261 849 14534 199120 19 47 29 1947.4267502365 2165.1640611564 59339.871296416 121551966.12479
187	225110 848 14534 199120 19 47 29 4151.5668935706 4238.7899644849 121596.8002624 509879029.93771
188	225958 850 14534 199120 19 47 29 1292.7277186312 1552.2491398975 41120.333264748 58509699.107051
189	226808 846 14534 199120 19 47 29 -4.5 2.5304238467477 19.498064107341 143.81348811631
190	227654 800 14534 199120 19 47 29 0.973 14.096912718807 163.97643112794 1295.9584176118
191	228454 868 14534 199120 19 47 29 -4.492470736301 2.5339947584318 12.343890396321 116.00923532896
192	229322 777 14534 199120 19 47 29 0.973 10.523632505718 115.36624929112 690.18600605884
193	230099 848 14534 199120 19 47 29 2.4557177811861 24.203926454756 451.70048487983 8135.6354840802
194	230947 847 14534 199120 19 47 29 11.838758447292 13.107102548531 360.80489900221 4493.4719609538
195	231794 819 16806 199120 20 47 28 6246.0501669301 6424.1062774438 177163.27721064 1121045729.8364
196	232613 820 16806 199120 20 47 28 2337.6218993732 2482.8100299337 67217.860059826 161437282.37498
197	233433 819 16806 199120 20 47 28 3568.3271081673 3741.7702647962 102671.62151855 376567250.12985
198	234252 820 16806 199120 20 47 28 5539.0376934837 5688.8254037452 157842.69537719 889849696.31505
199	235072 819 16806 199120 20 47 28 5478.6454696056 5679.3648314607 156847.11676506 878715807.61505
200	235891 818 16806 199120 20 47 28 3843.1648394877 3935.6408988764 108787.85619637 422695284.41955
201	236709 837 16806 199120 20 47 28 -4.4695994590223 2.5675610542763 16.546390154658 143.02833567434
202	237546 780 16806 199120 20 47 28 0.77332687803302 17.656003401123 174.81448151956 1708.7854884378
203	238326 861 16806 199120 20 47 28 -1.1754236653913 1.1274814544944 0.14759652004577 9.3105938637778
204	239187 709 16806 199120 20 47 28 0.973 5.5027988233416 63.315492170516 198.18940596065
205	239896 818 16806 199120 20 47 28 1.66553854011 15.013100183034 292.17285811828 3219.5661517609
206	240714 820 16806 199120 20 47 28 4.5051583491873 12.277261131557 290.35817731678 3173.2582650015
207	241534 790 18867 199120 21 47 27 2603.5695934978 2609.7495882091 70375.476164809 183433726.33492
208	242324 792 18867 199120 21 47 27 3381.230383696 3644.7315140191 95035.381911365 334707973.90207
209	243116 784 18867 199120 21 47 27 9183.040733945 9413.7049425361 251126.71030038 2335863459.2168
210	243900 786 18867 199120 21 47 27 4720.5541919605 4931.3405504587 129552.3677687 621735366.03663
211	244686 826 18867 199120 21 47 27 -1.0386277934536 2.5442749146605 13.347561642924 33.190506356478
212	245512 721 18867 199120 21 47 27 0.973 10.074440844002 81.73505119036 388.25391278375
213	246233 798 18867 199120 21 47 27 -4.5 1.8164076185087 -7.3242411159974 72.690894207973
214	247031 669 18867 199120 21 47 27 0.973 5.9425046668752 66.167640086519 235.97092927523
215	247700 790 18867 199120 21 47 27 1.8783325833268 13.878948072483 265.19453882815 2966.5575978588
216	248490 792 18867 199120 21 47 27 4.7446097242609 12.610237302469 279.91829423772 3064.2498383595
217	249282 791 18867 199120 21 47 27 2.3034919616068 12.825938900031 275.38918044491 3043.1166534925
218	250073 760 22849 199120 22 47 26 3331.9459988115 3488.056817743 88385.853029102 300528836.48745
219	250833 757 22849 199120 22 47 26 2422.3622753587 2524.469444022 64514.631879463 160108489.59861
220	251590 762 22849 199120 22 47 26 5147.801552795 5439.5622756884 136696.29534507 718881445.51456
221	252352 763 22849 199120 22 47 26 2968.5319360074 3032.892173913 78100.107369547 234612798.40037
222	253115 783 22849 199120 22 47 26 -4.2057105934597 2.1443300047424 11.046723528928 67.582289838082
223	253898 692 22849 199120 22 47 26 0.973 8.8510301878382 90.49356671787 461.48714140811
224	254590 788 22849 199120 22 47 26 -3.9829743501265 2.4822866970208 -0.95897026169114 55.494512002511
225	255378 653 22849 199120 22 47 26 0.973 7.1967910388563 71.138111197027 307.10058583026
226	256031 787 22849 199120 22 47 26 -4.018493182899 2.5033104089787 10.209174281109 64.848659615723
227	256818 701 22849 199120 22 47 26 0.973 8.1155631206181 86.688157384975 408.99264855451
228	257519 760 22849 199120 22 47 26 2.1747192301555 12.197416062554 263.57935794534 2866.5444813997
229	258279 760 22849 199120 22 47 26 7.5432724906674 16.409537978106 369.8363702015 5468.8790285006
230	259039 733 25453 199120 23 47 25 4775.6115834909 4902.763797654 120806.48103779 583816431.66826
231	259772 734 25453 199120 23 47 25 1000.8734892751 1348.0376686783 28789.910526421 33505115.868404
232	260506 735 25453 199120 23 47 25 7180.1164006493 7287.3469182217 181226.69071296 1313758803.673
233	261241 731 25453 199120 23 47 25 3363.0186714706 3467.7704145222 84839.238309023 287935641.52707
234	261972 732 25453 199120 23 47 25 6021.3136238874 6200.2824329226 151430.55748668 917318692.67785
235	262704 733 25453 199120 23 47 25 2943.7039904292 3048.5607673468 74412.264060996 221522460.08545
236	263437 763 25453 199120 23 47 25 -3.8428436122 2.5414312778506 2.8421065931152 43.461593092768
237	264200 652 25453 199120 23 47 25 0.973 8.1104537476442 64.266251533644 250.27719587425
238	264852 754 25453 199120 23 47 25 -4.5 1.9126975825522 -4.9132458726904 47.081359282955
239	265606 634 25453 199120 23 47 25 0.973 6.8542634588248 69.789705955507 298.20428907301
240	266240 732 25453 199120 23 47 25 2.1959824980702 11.340251930318 214.80912528161 1985.7691246615
241	266972 733 25453 199120 23 47 25 2.214159355429 20.725521928616 299.71202085634 4444.8457372458
242	267705 703 28578 199120 24 47 24 2439.2978003019 2613.3101030899 60115.357128501 150617314.40206
243	268408 701 28578 199120 24 47 24 3672.0117681 3792.7476652356 89576.101674187 334381309.7832
244	269109 696 28578 199120 24 47 24 4942.1965660615 5024.4263527431 119761.53360978 597631808.63773
245	269805 704 28578 199120 24 47 24 4213.6769779106 4340.5277825306 102843.19700679 440744391.77222
246	270509 723 28578 199120 24 47 24 -4.2600339902681 2.2334783112863 8.4513600149003 65.442968544267
247	271232 626 28578 199120 24 47 24 0.973 6.9409180766716 72.279240939536 307.98214993378
248	271858 726 28578 199120 24 47 24 -4.1030246583512 2.5205466448517 18.056583835961 66.300260232223
249	272584 665 28578 199120 24 47 24 0.97211826787459 15.52196496362 112.74824398923 880.04058619047
250	273249 702 28578 199120 24 47 24 1.3142850321019 23.64834263263 370.89834177583 6702.6467448754
251	273951 703 28578 199120 24 47 24 1.3682811009465 12.547042062759 221.17090218965 2303.8267526349
252	274654 705 28578 199120 24 47 24 2.2172360560158 24.917890664276 277.13498221019 4225.9314981228
253	275359 674 32321 199120 25 47 23 6921.130247086 7098.4081367653 161190.48139992 1129731969.5998
254	276033 676 32321 199120 25 47 23 1425.5505753602 1579.9769880907 34553.868809867 51960963.271483
255	276709 676 32321 199120 25 47 23 7129.863190275 7299.4517434762 165629.58631858 1192799594.6236
256	277385 677 32321 199120 25 47 23 2126.4488186222 2249.5020405637 50166.513345917 109464596.29003
257	278062 680 32321 199120 25 47 23 -4.5 2.4995235645911 13.415739261957 80.665522503243
258	278742 625 32321 199120 25 47 23 0.973 14.735124410877 127.42755724238 1040.5533959084
259	279367 695 32321 199120 25 47 23 -4.367207723135 2.5457943856018 10.992701372151 62.735434043212
260	280062 622 32321 199120 25 47 23 0.973 9.5338325857231 76.53835768552 384.63754493133
261	280684 686 32321 199120 25 47 23 -4.0806452443125 2.5379564797273 22.700654608261 98.002284151774
262	281370 635 32321 199120 25 47 23 0.973 17.181484263905 144.37910632506 1382.9936096777
263	282005 669 32321 199120 25 47 23 4.30831076942 21.90157231817 269.29816929308 3653.1655557176
264	282674 677 32321 199120 25 47 23 1.7293301475234 13.122633155156 219.06406214256 2365.4063601949
265	283351 645 35274 199120 26 47 22 5387.9271507431 5459.4125631694 119267.5304736 646595089.41028
266	283996 643 35274 199120 26 47 22 3979.0768154153 4145.7315689329 89272.896149135 362343482.4646
267	284639 645 35274 199120 26 47 22 3715.0112336567 3746.7184529212 82070.711420902 306166088.68011
268	285284 643 35274 199120 26 47 22 3100.91755013 3226.0454541854 69761.829273783 221241523.712
269	285927 619 35274 199120 26 47 22 -4.5 2.536921401252 7.592307876523 135.05789519516
270	286546 586 35274 199120 26 47 22 0.973 14.437657592955 124.93769139926 1071.5293092349
271	287132 666 35274 199120 26 47 22 -3.7869546121918 2.3120842830511 10.559587953891 64.438514027128
272	287798 587 35274 199120 26 47 22 0.973 8.7261763508746 78.065309989626 427.91846689063
273	288385 644 35274 199120 26 47 22 5.4537758803795 12.222433237358 235.14198449358 2584.0339033396
274	289029 646 35274 199120 26 47 22 4.6240325321825 12.676290366943 229.36347597096 2548.7907932767
275	289675 615 39344 199120 27 47 21 5271.6981977765 5567.1371940066 112969.24474219 607899350.29426
276	290290 617 39344 199120 27 47 21 1668.5580748976 1918.8280054279 36899.092090085 64966861.535952
277	290907 619 39344 199120 27 47 21 4535.3236205401 4743.1757644366 97130.533235991 449350800.97578
278	291526 618 39344 199120 27 47 21 1504.3176344648 1547.1975983363 31920.991767377 48525661.521031
279	292144 616 39344 199120 27 47 21 8214.2232149112 8411.1736808049 174124.7924765 1443870582.249
280	292760 618 39344 199120 27 47 21 2524.1790317689 2745.3180935702 55801.792811525 148390055.1601
281	293378 639 39344 199120 27 47 21 -4.2688093546196 2.4749476683559 0.0006379298400141 54.378270066487
282	294017 538 39344 199120 27 47 21 0.973 7.7652233616604 61.117690970399 273.67270177485
283	294555 641 39344 199120 27 47 21 -3.7770901794545 2.3064746658783 0.92251752677839 44.447850380104
284	295196 536 39344 199120 27 47 21 0.973 6.7409851642694 60.883494712667 265.77464780018
285	295732 621 39344 199120 27 47 21 0.010140018055594 14.626107903712 181.40543286873 2174.1053049477
286	296353 619 39344 199120 27 47 21 2.7076776258733 9.1845744011089 148.91908152154 1164.079760949
287	296972 588 42606 199120 28 47 20 9054.4988793407 9229.9761042866 183012.03039234 1674734635.2252
288	297560 585 42606 199120 28 47 20 5761.9756596154 5773.1013777027 115399.05430864 665847243.47235
289	298145 588 42606 199120 28 47 20 6329.5259895885 6457.0740868759 127903.85592167 817999892.45985
290	298733 590 42606 199120 28 47 20 5556.2134484379 5748.3088569573 113014.69498404 638684532.27567
291	299323 582 42606 199120 28 47 20 -4.5 2.3754960775143 -1.4190520908382 78.057166196725
292	299905 539 42606 199120 28 47 20 0.973 7.5921704967273 61.550237724409 270.23942620188
293	300444 613 42606 199120 28 47 20 -3.0955371660047 2.5825532079209 0.38192701062653 27.980349925582
294	301057 519 42606 199120 28 47 20 0.973 6.0872703879679 41.234258376164 118.62161997599
295	301576 590 42606 199120 28 47 20 2.0072538219159 33.083185583219 387.34825013786 9457.2297341461
296	302166 589 42606 199120 28 47 20 1.3929655082058 13.139641165821 212.83075066667 2507.2026122445
297	302755 589 42606 199120 28 47 20 1.6614015971543 20.207196489492 296.16136674675 5172.7816885992
298	303344 550 47938 199120 29 47 19 8087.5710666789 8265.556161512 155752.71504692 1276856272.6678
299	303894 552 47938 199120 29 47 19 2049.6564967718 2215.17 40787.324771269 87616519.809191
300	304446 557 47938 199120 29 47 19 4381.4703140977 4570.6767596162 85281.623147202 382859560.47761
301	305003 556 47938 199120 29 47 19 2647.8256687939 2707.374892812 50789.506610137 135773799.06061
302	305559 562 47938 199120 29 47 19 -0.22338695125654 2.5651967352023 30.852544810046 56.728318799246
303	306121 559 47938 199120 29 47 19 2.9618135738915 18.360501173823 199.72615971499 2511.1579212453
304	306680 578 47938 199120 29 47 19 -0.84519849368371 2.5495704100933 11.438214530348 27.342286289262
305	307258 508 47938 199120 29 47 19 0.973 8.2072962808282 62.343823065013 286.11657639482
306	307766 577 47938 199120 29 47 19 -0.99653058869298 2.5989876058651 17.419100463836 39.572800084035
307	308343 539 47938 199120 29 47 19 0.973 14.328150962452 98.202562775565 738.50018657277
308	308882 560 47938 199120 29 47 19 2.3342120763147 11.155260946695 176.4396918882 1749.9081333548
309	309442 561 47938 199120 29 47 19 11.607993536881 12.686231371896 230.93140182145 2808.3468144315
310	310003 531 52032 199120 30 47 18 8164.5247966395 8299.4856869319 148614.185939 1227037317.1249
311	310534 527 52032 199120 30 47 18 2116.7892407631 2297.6240506329 39896.88818708 88478009.417028
312	311061 530 52032 199120 30 47 18 8400.0206213329 8506.0829866754 152099.52372102 1285263062.7073
313	311591 531 52032 199120 30 47 18 3264.0239166489 3399.3117628085 60339.406203905 202304668.94761
314	312122 549 52032 199120 30 47 18 -1.0897478351137 2.5643961252412 7.9270019953374 20.318818357119
315	312671 482 52032 199120 30 47 18 0.973 6.0122234368974 48.770015071633 182.73775460234
316	313153 559 52032 199120 30 47 18 -0.7993952379562 0.59177489483263 -0.56109494937118 2.6643481434644
317	313712 468 52032 199120 30 47 18 0.973 3.6061568018921 34.809078578743 82.633920958372
318	314180 531 52032 199120 30 47 18 1.8264323099284 21.19252193324 246.6160622647 4058.7269467346
319	314711 531 52032 199120 30 47 18 2.1575607854174 13.456048661628 198.51780364393 2396.3557690458
320	315242 501 57783 199120 31 47 17 4600.502933582 4700.4824670156 78961.508371135 366777982.81904
321	315743 500 57783 199120 31 47 17 2493.2928632908 2607.8813779353 43248.959259753 110051429.95235
322	316243 501 57783 199120 31 47 17 6864.251370028 7009.000914606 118123.28891405 820810342.61727
323	316744 501 57783 199120 31 47 17 4158.6848891324 4235.6834140136 71320.207897216 299222779.37673
324	317245 502 57783 199120 31 47 17 5044.5722525597 5254.6179986956 87112.568164024 446466721.49014
325	317747 503 57783 199120 31 47 17 5680.2387530089 5840.2984007801 98413.43099932 569762646.82048
326	318250 496 57783 199120 31 47 17 -4.5 2.3493664612062 9.672636521875 73.643316915606
327	318746 462 57783 199120 31 47 17 0.973 11.429799025878 92.883767227605 740.35686158121
328	319208 519 57783 199120 31 47 17 -0.46354256432969 2.4267873282079 11.298487876211 22.295858076317
329	319727 461 57783 199120 31 47 17 0.973 7.0893969773599 55.315020084208 245.59682331198
330	320188 500 57783 199120 31 47 17 7.1253050119739 25.439793761355 259.99695439207 4529.1668221022
331	320688 502 57783 199120 31 47 17 1.6681086091325 14.11991480416 184.93686022321 2277.1199192871
332	321190 472 62071 199120 32 47 16 8096.6408665209 8252.2864588702 130688.96482076 1067517102.4183
333	321662 473 62071 199120 32 47 16 2925.6377291758 3048.2626156621 47727.638609017 142391332.72897
334	322135 471 62071 199120 32 47 16 8885.726224523 9101.0557406698 144352.94055755 1302440626.1083
335	322606 474 62071 199120 32 47 16 1907.8197342935 1947.2605291851 30872.138104917 59569585.557048
336	323080 469 62071 199120 32 47 16 -4.5 2.5455425214721 9.7484988407301 77.040641368469
337	323549 443 62071 199120 32 47 16 0.973 16.985932651754 113.66768735273 1227.4292261861
338	323992 489 62071 199120 32 47 16 -1.1890724923229 2.4138745184522 11.458402747305 30.045564220397
339	324481 434 62071 199120 32 47 16 0.973 9.5082740706539 58.259491669766 325.18188482328
340	324915 474 62071 199120 32 47 16 2.2928356418386 11.468510598079 152.07447688539 1556.9855206646
341	325389 474 62071 199120 32 47 16 1.6167789090192 13.948413820338 172.24143590709 2093.8601045009
342	325863 474 62071 199120 32 47 16 1.3491821906064 27.914699803928 266.5001580104 5657.068686614
343	326337 441 68684 199120 33 47 15 3320.7892534781 3517.7593688219 50884.18869018 172674005.63051
344	326778 443 68684 199120 33 47 15 3410.4664026581 3470.1240074652 51725.469441366 178373969.20408
345	327221 445 68684 199120 33 47 15 6607.1490437195 6724.5299441238 99854.293412911 664749429.69848
346	327666 444 68684 199120 33 47 15 3029.402553682 3117.0910104713 46217.060500555 142414339.19543
347	328110 463 68684 199120 33 47 15 -0.89690361123066 2.5614458827768 8.9701077936631 21.362875916868
348	328573 412 68684 199120 33 47 15 0.973 7.1611405644232 44.69963786691 189.44320458282
349	328985 457 68684 199120 33 47 15 -0.8118601814378 2.5129785816884 11.549599901732 25.040080316719
350	329442 413 68684 199120 33 47 15 0.973 7.4725594145505 54.122097658629 260.20652954505
351	329855 446 68684 199120 33 47 15 -0.55663115063216 2.5234061569208 26.00888646269 55.849816244793
352	330301 444 68684 199120 33 47 15 0.6513187626466 18.684676360684 138.38283341913 1633.4756108755
353	330745 444 68684 199120 33 47 15 13.060284509768 14.315761262251 205.39588886578 2815.4166650146
354	331189 442 68684 199120 33 47 15 1.3313380909851 27.826985051436 233.1566777389 4704.6281279844
355	331631 416 74086 199120 34 47 14 6679.8497258131 6764.0835508661 94187.790981032 633678510.55975
356	332047 415 74086 199120 34 47 14 1776.6561688554 1850.858178486 25463.179419591 46321220.341127
357	332462 415 74086 199120 34 47 14 7131.1537738692 7180.5911482234 100214.71514266 717360609.01072
358	332877 413 74086 199120 34 47 14 2581.9745508707 2635.8269182133 36636.814064337 95879978.242914
359	333290 414 74086 199120 34 47 14 2543.9688443623 2596.6485038445 36149.392383052 93345230.046669
360	333704 416 74086 199120 34 47 14 2556.0100810611 2610.7541018358 36204.785327284 93633197.118655
361	334120 437 74086 199120 34 47 14 -1.1990781696979 0.93576383946929 -0.3929069099715 4.6700762410744
362	334557 375 74086 199120 34 47 14 0.973 5.2133322043936 33.078541834804 104.39580384272
363	334932 416 74086 199120 34 47 14 -0.010068633082355 2.4470909923781 26.485578327369 56.045188901575
364	335348 416 74086 199120 34 47 14 3.0981031728264 19.981861602211 136.2686925952 1678.2091741821
365	335764 413 74086 199120 34 47 14 1.7772395106964 24.7388833873 205.78005627997 3818.6772853406
366	336177 415 74086 199120 34 47 14 1.5125712787267 14.409144969649 146.61573660972 1781.0932204098
367	336592 385 80160 199120 35 47 13 7025.5667148495 7064.2531433734 91591.006493557 645303281.95573
368	336977 387 80160 199120 35 47 13 4164.3243973534 4238.2330089852 54595.834741282 229293517.54298
369	337364 386 80160 199120 35 47 13 5133.1626773088 5206.7157427984 67176.180514238 347134080.19653
370	337750 384 80160 199120 35 47 13 2647.2663941147 2674.4731523976 34600.54765544 92093323.023429
371	338134 388 80160 199120 35 47 13 0.54962545491534 2.5819418966537 22.961643876603 45.370879840126
372	338522 387 80160 199120 35 47 13 3.1437682587643 13.668992975923 110.3244438113 1070.604207287
373	338909 381 80160 199120 35 47 13 -4.5 2.4541756077437 7.769570869091 50.393345505753
374	339290 357 80160 199120 35 47 13 0.973 9.9369091957384 51.974257694568 315.816100586
375	339647 387 80160 199120 35 47 13 1.6710514789214 12.619019557772 112.25005075381 1110.4864981496
376	340034 383 80160 199120 35 47 13 4.4062077765813 12.113817281504 93.766736143528 742.32602107706
377	340417 387 80160 199120 35 47 13 1.4943994782399 13.940330762093 102.63148732087 967.73998461795
378	340804 357 88853 199120 36 47 12 9156.8876251455 9228.670992216 110275.6498378 1013398650.4868
379	341161 356 88853 199120 36 47 12 2609.700512642 2647.2239930196 31507.514912876 82728779.085043
380	341517 362 88853 199120 36 47 12 -3.7995957590756 2.514767751866 9.7363567391855 46.974334686341
381	341879 326 88853 199120 36 47 12 0.973 8.714139873215 50.143602513233 287.51245331327
382	342205 367 88853 199120 36 47 12 -3.5866193091197 2.3557021918707 2.4551978052721 45.715422273277
383	342572 298 88853 199120 36 47 12 0.973 8.7358942184886 39.448671582726 211.23146343595
384	342870 349 88853 199120 36 47 12 -4.5 2.5925444208318 12.445931283853 54.869039160164
385	343219 337 88853 199120 36 47 12 0.973 10.742705181654 57.596055028399 369.83087969423
386	343556 356 88853 199120 36 47 12 2.1146570136538 12.616004182678 94.595814921766 843.68336736473
387	343912 357 88853 199120 36 47 12 1.5876525437925 11.587836460746 91.230731256998 793.93888375038
388	344269 328 98280 199120 37 47 11 3311.5838690348 3420.4257625741 36944.803385643 124098141.36139
389	344597 328 98280 199120 37 47 11 5042.7453522386 5096.5781963939 55811.837004175 283181958.01226
390	344925 328 98280 199120 37 47 11 7274.4366971804 7367.7478553713 80533.955454487 589620229.73394
391	345253 326 98280 199120 37 47 11 503.6793883725 607.67210858846 6111.2279216108 3407022.4249669
392	345579 333 98280 199120 37 47 11 -3.7217174105695 2.5266225533327 7.7622646154845 46.203985428569
393	345912 299 98280 199120 37 47 11 0.973 8.5050561210342 44.220297403157 248.3893661346
394	346211 333 98280 199120 37 47 11 -3.9142349831294 2.4824028446572 10.000183916954 57.327004946654
395	346544 299 98280 199120 37 47 11 0.973 8.6659309153811 49.225070502246 286.67204735039
396	346843 329 98280 199120 37 47 11 4.1432092596643 12.435419232575 101.62019683957 1040.3497973945
397	347172 300 105238 199120 38 47 10 3977.8376902823 4080.2102118744 40308.246196756 162486503.73185
398	347472 300 105238 199120 38 47 10 5747.4897231964 5774.1441010393 57652.642224674 332383407.30649
399	347772 300 105238 199120 38 47 10 7508.8156578521 7560.7421834105 75293.270947831 566910798.15287
400	348072 299 105238 199120 38 47 10 2351.8630914996 2407.3069213445 23737.677006404 56351303.222146
401	348371 300 105238 199120 38 47 10 6127.1534893044 6143.4673847218 61365.822108446 376576676.7534
402	348671 299 105238 199120 38 47 10 3281.1410194133 3334.9746659546 32982.008261777 108784324.19649
403	348970 296 105238 199120 38 47 10 -4.5 2.3438892292324 -1.019664382888 49.098423938425
404	349266 270 105238 199120 38 47 10 0.973 7.3183854414457 32.250376329131 161.28012773045
405	349536 298 105238 199120 38 47 10 5.0594148169906 15.110229382182 121.62992901083 1626.8835737641
406	349834 299 105238 199120 38 47 10 13.661119563638 14.306223652808 139.72013288467 1952.5667268074
407	350133 269 116014 199120 39 47 9 4244.9070762315 4262.3253039716 38263.846642296 162680508.95233
408	350402 268 116014 199120 39 47 9 2974.4683136818 3027.2679491951 26940.052901771 80643475.978513
409	350670 268 116014 199120 39 47 9 3307.0567088484 3316.8049403047 29815.538659385 98774142.307406
410	350938 267 116014 199120 39 47 9 3052.8741668856 3114.6329888843 27805.486805978 85909181.495786
411	351205 273 116014 199120 39 47 9 -4.5 0.39518600893207 -9.4665166338572 33.035303578163
412	351478 220 116014 199120 39 47 9 0.973 3.5967159042665 15.327269360169 34.031599107773
413	351698 286 116014 199120 39 47 9 -0.42348975059576 0.39870798515621 0.21258704562206 0.53534256037522
414	351984 260 116014 199120 39 47 9 0.973 3.3959868832971 19.467613582351 47.307338146762
415	352244 270 116014 199120 39 47 9 11.658743270837 12.517071716489 108.99619746491 1320.9129595432
416	352514 268 116014 199120 39 47 9 2.3847032885067 14.242453307702 75.96125116492 773.49911963679
417	352782 270 116014 199120 39 47 9 2.2709876091918 13.959174647335 65.569666325398 587.90325173113
418	353052 239 121577 199120 40 47 8 9658.0181224294 9849.8255002965 78029.147872327 761100014.01182
419	353291 240 121577 199120 40 47 8 1912.9087164923 1954.8990829246 15471.050243719 29920693.610453
420	353531 238 121577 199120 40 47 8 5243.0437889078 5257.3118518519 41994.983315632 220447545.67508
421	353769 240 121577 199120 40 47 8 1865.3062962963 1906.5241751688 15100.324662406 28503829.652435
422	354009 253 121577 199120 40 47 8 -0.68218242486473 0.64192207446322 -0.55580415213481 1.4443679965228
423	354262 210 121577 199120 40 47 8 0.973 3.8080355830359 15.09571822247 36.422191792905
424	354472 229 121577 199120 40 47 8 -4.5 2.5684014717815 7.357750019195 41.452304398612
425	354701 228 121577 199120 40 47 8 0.973 7.6917589566639 38.851755609938 228.66980398591
426	354929 243 121577 199120 40 47 8 -0.73211435372941 2.3992453218205 11.688187038143 26.151647256504
427	355172 228 121577 199120 40 47 8 0.973 10.106114865752 39.04423314513 257.64551940381
428	355400 240 121577 199120 40 47 8 1.4463647838216 13.276399849704 55.658839520439 504.70335684502
429	355640 240 121577 199120 40 47 8 1.8839627243113 12.401652386406 62.531129068357 583.46992223476
430	355880 208 131150 199120 41 47 7 7775.8901366804 7808.192897735 54573.54233247 425468217.34229
431	356088 210 131150 199120 41 47 7 3815.3441656984 3830.1414276683 26745.799940602 102191296.17316
432	356298 210 131150 199120 41 47 7 6060.8724272488 6094.5223838826 42515.055485264 258219487.70992
433	356508 210 131150 199120 41 47 7 2347.5605939218 2376.5771510802 16509.624971767 38938932.628593
434	356718 210 131150 199120 41 47 7 6620.7513746631 6648.0667485018 46417.543951676 307798955.98286
435	356928 209 131150 199120 41 47 7 1488.171650258 1518.8509703504 10550.770494905 15903455.591371
436	357137 210 131150 199120 41 47 7 1.4329721584218 2.2459886800498 11.830035065883 20.457025371205
437	357347 210 131150 199120 41 47 7 2.2454727563276 9.1529257580773 34.320152390968 202.1259771837
438	357557 210 131150 199120 41 47 7 -4.2439909015084 2.5080576555803 6.2736987605865 40.322667602597
439	357767 199 131150 199120 41 47 7 0.973 9.0766091985241 31.460380481671 185.92001066919
440	357966 208 131150 199120 41 47 7 27.473493120288 28.544070236692 196.36211256893 5509.1932360214
441	358174 209 131150 199120 41 47 7 5.1041328784904 9.8870037165937 51.020955609535 395.5299407259
442	358383 178 138240 199120 42 47 6 3879.7698379468 3913.147234884 23387.299844015 91161714.19423
443	358561 180 138240 199120 42 47 6 5834.6812047387 5880.9295637579 35155.022467403 205980836.06463
444	358741 179 138240 199120 42 47 6 4778.8403035966 4801.231508283 28759.378835959 137850696.61987
445	358920 179 138240 199120 42 47 6 3853.9755362356 3862.0472696314 23151.661303468 89333289.816669
446	359099 189 138240 199120 42 47 6 -0.98234641738236 0.56249431998003 -1.0705771164037 2.0244078115329
447	359288 171 138240 199120 42 47 6 0.65757579156386 8.4687804222788 23.031895962822 148.84405525124
448	359459 174 138240 199120 42 47 6 -4.5 1.7877162535442 -1.4815384466427 25.191696663526
449	359633 149 138240 199120 42 47 6 0.973 5.1917473564003 13.649002455029 45.371294952504
450	359782 180 138240 199120 42 47 6 1.5389812113717 10.685799803887 35.527377220592 269.89322863499
451	359962 179 138240 199120 42 47 6 2.2323455925332 13.08750487701 44.43184758639 412.11517948527
452	360141 180 138240 199120 42 47 6 1.7972740404308 11.984300239291 41.077268192917 351.56538896984
453	360321 150 149697 199120 43 47 5 2775.8265532312 2796.6589942305 13931.733901952 38818912.888907
454	360471 150 149697 199120 43 47 5 959.52224187491 1013.0071094554 4929.9882533606 4862743.0283112
455	360621 150 149697 199120 43 47 5 7541.7091059519 7561.5523609648 37768.519961865 285292480.7461
456	360771 150 149697 199120 43 47 5 2423.9580223281 2434.1385458061 12139.923023469 29475614.830249
457	360921 150 149697 199120 43 47 5 1.4739054602338 2.5513427064754 9.1468185925158 17.435833541292
458	361071 150 149697 199120 43 47 5 2.5312036279515 7.0752983170206 22.979749773912 121.47618477511
459	361221 150 149697 199120 43 47 5 1.9066577259684 2.5615003109677 10.855159284477 23.885248027157
460	361371 148 149697 199120 43 47 5 3.218106502232 9.3933473574058 30.901681106432 218.77466786893
461	361519 150 149697 199120 43 47 5 1.8048508888809 2.2214021179825 10.18702619886 20.885255179648
462	361669 150 149697 199120 43 47 5 3.4350231266489 8.2630175606896 27.190477876025 163.28773424023
463	361819 148 149697 199120 43 47 5 11.256348301759 12.324393119649 58.125157770351 676.45678078358
464	361967 149 149697 199120 43 47 5 2.2242024624953 9.1602624295279 28.107504097675 185.99110303616
465	362116 120 156998 199120 44 47 4 4632.4415993188 4643.9160256108 18556.311902898 86084255.068544
466	362236 120 156998 199120 44 47 4 4626.6076674738 4634.2528271827 18519.324617922 85741380.351179
467	362356 120 156998 199120 44 47 4 6476.2772164146 6485.2108794272 25926.058043153 168040168.17524
468	362476 119 156998 199120 44 47 4 3118.706275291 3125.2263685725 12485.616046958 38972676.925636
469	362595 125 156998 199120 44 47 4 -1.0514340281254 0.66904556755908 -0.34315061380621 1.8417641562344
470	362720 99 156998 199120 44 47 4 0.973 3.864643239888 8.7499293468299 25.468328190074
471	362819 118 156998 199120 44 47 4 1.3339881885564 2.1660937392386 6.9360599670326 12.504763917034
472	362937 120 156998 199120 44 47 4 3.1707762834796 6.4048161778824 16.835595186182 77.627245752639
473	363057 119 156998 199120 44 47 4 13.84616863583 14.770305906537 57.398767116799 824.29792105507
474	363176 117 156998 199120 44 47 4 2.0864541091723 9.1061380692292 22.302479280694 151.50531425993
475	363293 90 172034 199120 45 47 3 7060.5180412941 7063.6091231895 21186.737730314 149625956.86123
476	363383 90 172034 199120 45 47 3 1191.5367871048 1195.0459370982 3579.2531233143 4270357.3877152
477	363473 90 172034 199120 45 47 3 1844.0610445337 1891.5079381188 5603.3635881653 10467020.104316
478	363563 90 172034 199120 45 47 3 3602.9395445961 3614.4118594309 10826.029551577 39067704.424218
479	363653 96 172034 199120 45 47 3 -0.22139175054617 0.92413727070671 0.6471718016779 0.90613244050512
480	363749 90 172034 199120 45 47 3 1.2843943372355 5.4097931699922 8.611274643455 34.590754043505
481	363839 90 172034 199120 45 47 3 2.2429789395072 2.4297050483292 7.0196839600569 16.442830014552
482	363929 90 172034 199120 45 47 3 3.8396011909669 6.9512154498931 15.859378536396 88.752253225392
483	364019 90 172034 199120 45 47 3 2.3084436378675 6.6305551340105 13.788861270761 72.814339672437
484	364109 90 172034 199120 45 47 3 1.7693011381198 5.5850288445363 11.061021535681 48.062535980918
485	364199 60 183251 199120 46 47 2 8675.3024980545 8684.4345044207 17359.737002475 150680276.09432
486	364259 60 183251 199120 46 47 2 2300.0142764076 2309.6106917384 4609.624968146 10624367.219071
487	364319 60 183251 199120 46 47 2 6294.3295813149 6302.1659567087 12596.495538024 79335880.624113
488	364379 60 183251 199120 46 47 2 1088.2952408437 1097.1301335728 2185.4253744165 2388081.0612365
489	364439 60 183251 199120 46 47 2 1.7806926351273 2.5414188610157 4.322111496143 9.6296760879231
490	364499 59 183251 199120 46 47 2 4.3022694594816 4.324948653049 8.6272181125306 37.214703353499
491	364558 60 183251 199120 46 47 2 1.8783372915117 1.9373904149048 3.8157277064165 7.2816326004485
492	364618 60 183251 199120 46 47 2 3.0242108949119 3.9237421106431 6.947953005555 24.541603687738
493	364678 60 183251 199120 46 47 2 1.5107768146787 3.1659048183123 4.6766816329909 12.305399902383
494	364738 60 183251 199120 46 47 2 24.377526843003 24.398321798923 48.775848641926 1189.5419215851
495	364798 30 199120 199120 47 47 1 8775.6555252387 8775.6555252387 8775.6555252387 77012129.897653
496	364828 30 199120 199120 47 47 1 3828.6739972715 3828.6739972715 3828.6739972715 14658744.577383
497	364858 30 199120 199120 47 47 1 5266.4818806744 5266.4818806744 5266.4818806744 27735831.399472
498	364888 30 199120 199120 47 47 1 3483.4789321228 3483.4789321228 3483.4789321228 12134625.470543
499	364918 30 199120 199120 47 47 1 1.6551280036336 1.6551280036336 1.6551280036336 2.7394487084121
500	364948 29 199120 199120 47 47 1 2.528489219751 2.528489219751 2.528489219751 6.3932577343971
501	364977 33 199120 199120 47 47 1 -0.020794955920429 -0.020794955920429 -0.020794955920429 0.0004324301917326
502	365010 28 199120 199120 47 47 1 3.50206532969 3.50206532969 3.50206532969 12.264461573417
503	365038 30 199120 199120 47 47 1 13.247984933084 13.247984933084 13.247984933084 175.50910478721
[...]
1182	2550432 592 2282306 3561916 108 125 18 1.4606177981477 22.943884625563 206.67461076367 3208.2645117495
1183	2551024 561 2330860 3561916 109 125 17 6702.5184516029 6783.2495770866 114546.91189857 771837855.39076
1184	2551585 560 2330860 3561916 109 125 17 2620.4520698143 2759.3034971022 45867.024512916 123777795.87647
1185	2552145 557 2330860 3561916 109 125 17 8520.435544567 8677.1769078811 146399.15126742 1260795498.3141
1186	2552702 561 2330860 3561916 109 125 17 5350.6898899843 5369.0568093601 91115.945436865 488360298.46633
1187	2553263 568 2330860 3561916 109 125 17 -4.5 2.04667146625 -0.70971600979101 42.179723983637
1188	2553831 531 2330860 3561916 109 125 17 0.973 6.7362610576361 43.892710009483 157.8215589432
1189	2554362 546 2330860 3561916 109 125 17 -4.5 2.5842830710113 -9.0406139552691 132.3493989598
1190	2554908 481 2330860 3561916 109 125 17 0.973 12.872002435363 72.698271949629 555.65825981778
1191	2555389 568 2330860 3561916 109 125 17 -3.3904861127725 2.4040453330847 16.864889378447 63.965205232215
1192	2555957 529 2330860 3561916 109 125 17 0.973 14.722445232761 101.63137700789 942.30028928402
1193	2556486 560 2330860 3561916 109 125 17 2.0978086701594 13.851401679506 185.4763435276 2255.8734155002
1194	2557046 557 2330860 3561916 109 125 17 5.1523547362268 12.641561716997 175.13434357315 1917.8239783475
1195	2557603 528 2420755 3561916 110 125 16 4551.7530948015 4633.6360908486 73389.737323286 336637979.93777
1196	2558131 528 2420755 3561916 110 125 16 5457.5297427198 5599.0061627435 88563.971368158 490257502.10334
1197	2558659 526 2420755 3561916 110 125 16 5224.7186156852 5373.5802313273 84827.373390636 449764958.87377
1198	2559185 528 2420755 3561916 110 125 16 2225.5869871926 2384.6591543399 36841.831777376 84872361.639446
1199	2559713 542 2420755 3561916 110 125 16 -2.1496481391836 2.4037296728231 9.227461567297 27.375395217593
1200	2560255 506 2420755 3561916 110 125 16 0.973 7.4928237746529 53.776039766017 251.27487591693
1201	2560761 548 2420755 3561916 110 125 16 -4.3573154863901 2.4839821248315 0.14920811099 38.95354238067
1202	2561309 458 2420755 3561916 110 125 16 0.973 9.0465174883064 42.789407766371 199.23968744511
1203	2561767 527 2420755 3561916 110 125 16 5.9732898017709 15.382367850726 188.31065966242 2386.2686969847
1204	2562294 527 2420755 3561916 110 125 16 1.5975263656583 13.886649542655 167.76087676439 2033.5514015638
1205	2562821 491 2484191 3561916 111 125 15 7192.9708524876 7288.9009698992 108736.17220148 788252496.74686
1206	2563312 492 2484191 3561916 111 125 15 3432.3139753715 3513.4945833711 52012.981981821 180367307.92901
1207	2563804 494 2484191 3561916 111 125 15 8983.3472127324 9138.7233341889 136186.89581306 1236497419.8684
1208	2564298 493 2484191 3561916 111 125 15 2790.9709548255 2915.6489517239 42578.967650575 120889796.24884
1209	2564791 493 2484191 3561916 111 125 15 5908.6507886726 6000.849624238 89193.397945864 530378249.82197
1210	2565284 493 2484191 3561916 111 125 15 1417.1667939264 1524.7776249288 21942.025956332 32116156.996317
1211	2565777 500 2484191 3561916 111 125 15 -4.5 2.5495668048738 -7.6739256548568 72.406399307662
1212	2566277 425 2484191 3561916 111 125 15 0.973 9.3601715565451 42.3880945816 214.81407751255
1213	2566702 507 2484191 3561916 111 125 15 -0.74436614280567 2.5054526167456 12.132277470016 22.321981888753
1214	2567209 474 2484191 3561916 111 125 15 0.973 7.8001030456824 53.842190373033 249.04894128405
1215	2567683 491 2484191 3561916 111 125 15 13.789689594251 14.904182208236 214.45683023079 3068.0731854479
1216	2568174 495 2484191 3561916 111 125 15 8.9430056658044 15.496352157237 217.87435797836 3201.6091029921
1217	2568669 456 2550530 3561916 112 125 14 8515.7086416682 8575.4005303726 119749.78269924 1024290790.0051
1218	2569125 460 2550530 3561916 112 125 14 5587.2575842909 5679.265889996 78838.567236512 443976691.73778
1219	2569585 461 2550530 3561916 112 125 14 9508.5983063328 9553.1813261709 133433.17462297 1271747390.7826
1220	2570046 460 2550530 3561916 112 125 14 5575.6888365243 5724.5361633803 79092.734363217 446860896.63014
1221	2570506 481 2550530 3561916 112 125 14 -1.0530202314956 0.81329345884733 -0.3961163017666 4.862754431174
1222	2570987 401 2550530 3561916 112 125 14 0.973 4.9830213418087 34.844501580592 117.79073637109
1223	2571388 469 2550530 3561916 112 125 14 -4.5 0.89431556938216 -6.4810458661191 25.347241274661
1224	2571857 399 2550530 3561916 112 125 14 0.973 5.5412381957166 30.010968918561 94.098818582645
1225	2572256 460 2550530 3561916 112 125 14 1.6458157003857 11.16376175709 126.50253354214 1269.8378674237
1226	2572716 461 2550530 3561916 112 125 14 2.3165956134209 20.790436931217 199.21232532112 3420.8014537316
1227	2573177 460 2550530 3561916 112 125 14 1.8835316712968 13.096921028946 141.826732185 1626.5345298436
1228	2573637 429 2621079 3561916 113 125 13 6513.2585456819 6587.9380100745 85203.428479946 558442445.66463
1229	2574066 427 2621079 3561916 113 125 13 1815.412013659 1881.7820700662 24072.329112631 44582906.826057
1230	2574493 428 2621079 3561916 113 125 13 4207.8812942366 4240.9247405567 54898.1032818 231832701.60663
1231	2574921 427 2621079 3561916 113 125 13 1459.3684428716 1553.3342138412 19534.549890911 29368555.056525
1232	2575348 443 2621079 3561916 113 125 13 -0.29283708224539 2.5551304740366 9.2209332394503 19.137916493094
1233	2575791 417 2621079 3561916 113 125 13 0.973 7.8858953686766 37.872755540447 153.11663695429
1234	2576208 432 2621079 3561916 113 125 13 -0.30559946617577 2.504619339155 18.473841317796 37.427086111296
1235	2576640 427 2621079 3561916 113 125 13 1.3791557985493 10.499967162148 85.706541491618 674.22370031804
1236	2577067 442 2621079 3561916 113 125 13 -0.52388876141049 2.5966963830637 10.237595429951 22.45802606329
1237	2577509 408 2621079 3561916 113 125 13 0.973 9.4467182291202 44.062576664733 216.33425606613
1238	2577917 428 2621079 3561916 113 125 13 5.6025775866467 12.552791315513 132.3948095254 1425.5529011995
1239	2578345 426 2621079 3561916 113 125 13 8.2970566642893 13.390226973683 158.99209154518 1967.1456425721
1240	2578771 394 2701100 3561916 114 125 12 8017.3478277789 8098.1000930634 96667.141540463 778721819.49277
1241	2579165 395 2701100 3561916 114 125 12 3600.0653902786 3610.0600040799 43287.269020537 156149058.72579
1242	2579560 396 2701100 3561916 114 125 12 3534.8047911125 3581.7935662216 42637.867198664 151501937.04309
1243	2579956 395 2701100 3561916 114 125 12 1445.2940948208 1541.679389809 17795.232280922 26401647.304368
1244	2580351 396 2701100 3561916 114 125 12 6392.4294092104 6457.0740868759 77100.625426632 495380344.89668
1245	2580747 395 2701100 3561916 114 125 12 5642.9448165144 5748.3088569573 68342.000079036 389232462.77734
1246	2581142 395 2701100 3561916 114 125 12 -4.5 2.122169566853 -1.945885698025 39.392840212468
1247	2581537 346 2701100 3561916 114 125 12 0.973 6.4647627916681 34.026287985251 152.6494809934
1248	2581883 407 2701100 3561916 114 125 12 -3.3799259068677 2.4756044133799 0.53319927249104 28.374284718068
1249	2582290 336 2701100 3561916 114 125 12 0.973 9.7955474032977 39.833824594027 235.39635698498
1250	2582626 391 2701100 3561916 114 125 12 1.788471832918 14.78901047024 99.911267935732 1069.7338871995
1251	2583017 394 2701100 3561916 114 125 12 1.7875967080239 13.499900797804 99.621389557841 1001.5350777712
1252	2583411 363 2784155 3561916 115 125 11 4611.0862104092 4634.2394940278 50851.766747764 235082704.822
1253	2583774 363 2784155 3561916 115 125 11 4752.0617954682 4799.7661495105 52558.529766832 251129901.231
1254	2584137 362 2784155 3561916 115 125 11 8352.6565235336 8409.6168393022 92116.109017307 771401874.17524
1255	2584499 363 2784155 3561916 115 125 11 2203.7680403175 2269.3156192188 24687.692705893 55412680.040413
1256	2584862 356 2784155 3561916 115 125 11 -4.5 2.5121990633663 0.51484742492602 73.141459161187
1257	2585218 323 2784155 3561916 115 125 11 0.973 8.7831134248541 44.742648035986 278.6973521093
1258	2585541 368 2784155 3561916 115 125 11 -3.7700372278807 2.5010081886081 5.0309766602443 60.297253176824
1259	2585909 332 2784155 3561916 115 125 11 0.973 8.7408164448301 44.484730258412 254.96200980515
1260	2586241 363 2784155 3561916 115 125 11 1.7692835303256 12.737035817676 86.673609135455 792.22442010153
1261	2586604 360 2784155 3561916 115 125 11 2.0846799628111 14.66176438873 107.23273048474 1247.4900967961
1262	2586964 360 2784155 3561916 115 125 11 10.682057820596 11.70935211292 123.77679147272 1394.2705755571
1263	2587324 330 2848207 3561916 116 125 10 3682.8132824736 3740.9726470494 37044.101565381 137230293.94143
1264	2587654 324 2848207 3561916 116 125 10 993.70394407952 1049.461850149 10286.875759056 10585439.126988
1265	2587978 328 2848207 3561916 116 125 10 5141.4401733188 5171.9092891319 51588.640612366 266139967.16167
1266	2588306 330 2848207 3561916 116 125 10 4111.1027240989 4169.4493711552 41444.684917478 171770529.37167
1267	2588636 337 2848207 3561916 116 125 10 -3.1619728629012 2.5144660409074 5.6907428262258 38.243381857543
1268	2588973 300 2848207 3561916 116 125 10 0.973 9.3905996982686 36.836135153825 214.10057325053
1269	2589273 332 2848207 3561916 116 125 10 -1.5877608949524 2.3631434630603 10.989323530967 26.044925071529
1270	2589605 309 2848207 3561916 116 125 10 0.973 9.4252863779836 45.549357159048 268.41101081483
1271	2589914 345 2848207 3561916 116 125 10 -0.79706928536762 1.0258058624109 0.030036156647839 2.8035449764506
1272	2590259 299 2848207 3561916 116 125 10 0.973 4.7174499299051 20.882789364009 56.700477985022
1273	2590558 329 2848207 3561916 116 125 10 2.2507764678914 6.3768036713508 53.274646064736 298.05841994073
1274	2590887 329 2848207 3561916 116 125 10 1.7447174082277 13.521871380142 86.84145747679 919.84904748409
1275	2591216 297 2936759 3561916 117 125 9 8083.6119788093 8139.5275937098 72949.257081689 591291490.41439
1276	2591513 297 2936759 3561916 117 125 9 3808.4693877782 3841.7661079319 34393.385062688 131435036.39559
1277	2591810 295 2936759 3561916 117 125 9 3056.60270433 3116.2205694859 27754.487220815 85593896.722793
1278	2592105 296 2936759 3561916 117 125 9 5139.7494613919 5198.2657393041 46491.075255173 240161276.03388
1279	2592401 311 2936759 3561916 117 125 9 -0.48991324726958 2.1044049160472 3.4388703607871 8.8854994240154
1280	2592712 256 2936759 3561916 117 125 9 0.973 4.5179897090157 17.120301300353 45.543878474057
1281	2592968 299 2936759 3561916 117 125 9 -0.55299061017577 1.9668434718624 11.777153971914 20.598217407711
1282	2593267 286 2936759 3561916 117 125 9 0.973 7.6104277634826 39.989972838683 213.69769868266
1283	2593553 294 2936759 3561916 117 125 9 1.875480749947 14.968937074717 80.568163829409 902.51551425286
1284	2593847 295 2936759 3561916 117 125 9 1.8543070831336 12.868069519068 65.824448367702 583.78398406129
1285	2594142 262 3003023 3561916 118 125 8 4394.3177332193 4404.284007251 35176.098896983 154669843.91668
1286	2594404 264 3003023 3561916 118 125 8 3670.9007845514 3721.2955369077 29616.978464317 109648071.84223
1287	2594668 261 3003023 3561916 118 125 8 6798.1248543071 6837.1633928224 54502.985916524 371323346.26826
1288	2594929 264 3003023 3561916 118 125 8 2381.5029938341 2418.2572294388 19240.409856271 46275415.121421
1289	2595193 263 3003023 3561916 118 125 8 6095.1393589117 6150.9312067669 48992.370950516 300033960.4201
1290	2595456 264 3003023 3561916 118 125 8 5716.0128698427 5746.0973001354 45839.698211219 262660631.43743
1291	2595720 264 3003023 3561916 118 125 8 -0.62393284288701 2.4537162217777 12.469523481883 25.664564233426
1292	2595984 252 3003023 3561916 118 125 8 0.973 9.1868971252383 42.231126421695 278.52707145241
1293	2596236 265 3003023 3561916 118 125 8 -4.2648154787874 2.4222225769656 3.4881784608551 49.595940315653
1294	2596501 243 3003023 3561916 118 125 8 0.973 8.4924650621536 33.523252739252 187.0823012419
1295	2596744 264 3003023 3561916 118 125 8 2.0450373214204 12.139684752301 65.077821779872 633.26544646302
1296	2597008 263 3003023 3561916 118 125 8 4.9600520879122 12.340593274062 83.621415784794 930.13575819983
1297	2597271 231 3099500 3561916 119 125 7 2609.3026643869 2618.8417208455 18292.452042555 47802047.766083
1298	2597502 231 3099500 3561916 119 125 7 1422.7245383495 1461.6529572816 10070.617992464 14489459.615893
1299	2597733 229 3099500 3561916 119 125 7 4188.877020757 4226.8960773562 29455.291663884 123946008.02383
1300	2597962 231 3099500 3561916 119 125 7 5599.7778378578 5686.0138217338 39500.058525532 222899286.96924
1301	2598193 234 3099500 3561916 119 125 7 -0.46529734977521 2.3338819179917 9.6293500811055 19.398328942101
1302	2598427 221 3099500 3561916 119 125 7 0.973 7.3793936368691 30.146180978443 158.20273005361
1303	2598648 231 3099500 3561916 119 125 7 -4.5 0.71309358624276 -7.0224048984694 25.357166766562
1304	2598879 181 3099500 3561916 119 125 7 0.973 3.9997221442456 10.64188166099 23.889718179125
1305	2599060 230 3099500 3561916 119 125 7 1.315591337136 12.565996367513 52.587383331014 495.68582093355
1306	2599290 231 3099500 3561916 119 125 7 1.4130811419105 13.369252560334 53.679091621842 524.62550899654
1307	2599521 231 3099500 3561916 119 125 7 10.391459757393 11.496357734735 76.665851285525 841.17843448343
1308	2599752 198 3176113 3561916 120 125 6 2702.1415071621 2721.7536587552 16284.330130707 44196850.111343
1309	2599950 198 3176113 3561916 120 125 6 5724.1937787796 5748.1788893316 34402.192355585 197252230.92769
1310	2600148 198 3176113 3561916 120 125 6 2511.3809108606 2562.0204109589 15219.115940629 38605366.457617
1311	2600346 197 3176113 3561916 120 125 6 5173.7377510663 5191.9443835616 31096.65522174 161167225.04038
1312	2600543 198 3176113 3561916 120 125 6 1.3254837956797 2.4379476238275 11.250405030377 22.097058410159
1313	2600741 198 3176113 3561916 120 125 6 3.2952420790666 5.9740835198742 31.088514557181 166.08668660715
1314	2600939 197 3176113 3561916 120 125 6 1.391561220563 2.5366077005398 11.956171418424 24.707775051882
1315	2601136 197 3176113 3561916 120 125 6 3.6097064499681 8.068025204459 33.984495283901 209.12389878306
1316	2601333 205 3176113 3561916 120 125 6 -1.0459866149584 1.0890455016633 0.65519514949992 4.1613023340389
1317	2601538 178 3176113 3561916 120 125 6 0.973 4.8167760241784 16.160988018122 57.10842711105
1318	2601716 197 3176113 3561916 120 125 6 2.5008800212527 9.5939704927856 40.079839355151 306.09407548866
1319	2601913 198 3176113 3561916 120 125 6 15.257744642963 16.306998812976 94.25438393959 1481.4337881784
1320	2602111 165 3257512 3561916 121 125 5 2458.7931512981 2485.0055279152 12371.722809358 30612349.794922
1321	2602276 163 3257512 3561916 121 125 5 3956.7468964985 3964.216282026 19810.647334081 78492387.327934
1322	2602439 165 3257512 3561916 121 125 5 5573.9912891473 5619.5640520984 27984.187629091 156624238.95274
1323	2602604 165 3257512 3561916 121 125 5 2691.3476933459 2713.2601591896 13511.66353033 36513307.930536
1324	2602769 166 3257512 3561916 121 125 5 0.48775394354016 2.0105893724831 7.093090471533 11.609805902527
1325	2602935 163 3257512 3561916 121 125 5 2.78214891797 4.6596521403868 19.330384349904 76.885878597166
1326	2603098 173 3257512 3561916 121 125 5 -0.94157125216443 0.75924389406573 0.10364370204043 2.068988514247
1327	2603271 155 3257512 3561916 121 125 5 0.973 5.1930029653879 14.059158029832 57.86232942133
1328	2603426 165 3257512 3561916 121 125 5 2.1184281386668 10.291653191159 30.986535321176 230.61615037765
1329	2603591 165 3257512 3561916 121 125 5 10.236992860497 11.093772082688 53.809075795837 579.48165636489
1330	2603756 132 3332722 3561916 122 125 4 7511.4408756815 7524.2059815242 30075.930460174 226140493.93662
1331	2603888 132 3332722 3561916 122 125 4 3219.9793071594 3222.3452147257 12883.789661011 41498012.29389
1332	2604020 130 3332722 3561916 122 125 4 2504.404879332 2514.9430505465 10035.851319556 25179641.883926
1333	2604150 132 3332722 3561916 122 125 4 3684.1504660892 3685.7190707354 14740.162482881 54318098.922476
1334	2604282 130 3332722 3561916 122 125 4 1.4972706719302 2.528151186998 8.1732250524918 17.486689403274
1335	2604412 132 3332722 3561916 122 125 4 3.9988417839585 7.9777131478484 20.33744358796 114.63109114066
1336	2604544 140 3332722 3561916 122 125 4 -0.58416309140157 0.58020075324457 -0.27657846894581 0.74265299205178
1337	2604684 112 3332722 3561916 122 125 4 0.973 3.2612995519273 6.9073257031584 15.419621682271
1338	2604796 130 3332722 3561916 122 125 4 6.3370398653604 10.83703986536 30.568952367963 247.32012764346
1339	2604926 131 3332722 3561916 122 125 4 12.250778249158 12.969456060762 50.570871564915 639.66740469167
1340	2605057 99 3408506 3561916 123 125 3 2595.7438290733 2596.6485038445 7788.795871869 20221780.815768
1341	2605156 99 3408506 3561916 123 125 3 2556.0100810611 2561.4178151354 7674.9022659088 19634723.909914
1342	2605255 99 3408506 3561916 123 125 3 8868.7188235294 8889.8957789482 26637.632539105 236521380.05033
1343	2605354 99 3408506 3561916 123 125 3 2585.9914705882 2599.0078603883 7777.2557478925 20161987.075357
1344	2605453 91 3408506 3561916 123 125 3 -4.5 0.42863815936726 -4.2078452528454 20.452358393475
1345	2605544 89 3408506 3561916 123 125 3 0.973 2.1638922648267 4.3755463728468 7.1634227330919
1346	2605633 103 3408506 3561916 123 125 3 -0.58522928960156 0.45482634452637 0.13344852200244 0.61897792176178
1347	2605736 89 3408506 3561916 123 125 3 0.973 3.3587986795293 7.022348985465 19.467318518379
1348	2605825 99 3408506 3561916 123 125 3 1.9970759754069 6.7133337044157 12.984004768403 67.320776859532
1349	2605924 99 3408506 3561916 123 125 3 2.0793890550965 4.9550088803982 10.653311934206 41.972510377347
1350	2606023 58 3494754 3561916 124 125 2 5178.32 5189.1226151337 10367.442615134 53741991.537292
1351	2606081 58 3494754 3561916 124 125 2 4371.2748141401 4377.41 8748.6848141401 38269761.808836
1352	2606139 66 3494754 3561916 124 125 2 5401.0898842889 5412.6688226863 10813.758706975 58468755.722248
1353	2606205 66 3494754 3561916 124 125 2 568.20900126841 592.30598799533 1160.5149892637 673687.85253757
1354	2606271 66 3494754 3561916 124 125 2 2.2765191131737 2.4397386158351 4.7162577290088 11.134863786242
1355	2606337 66 3494754 3561916 124 125 2 3.6680384554836 5.4090874320535 9.0771258875371 42.712732958506
1356	2606403 66 3494754 3561916 124 125 2 1.3360948816873 1.5395249436144 2.8756198253017 4.1552865848819
1357	2606469 65 3494754 3561916 124 125 2 2.6316641482224 2.955775310605 5.5874394588274 15.662263875821
1358	2606534 66 3494754 3561916 124 125 2 1.4846424998716 3.9982599512208 5.4829024510924 18.190245989961
1359	2606600 66 3494754 3561916 124 125 2 12.050379292561 12.802121117349 24.85250040991 309.10594619786
1360	2606666 33 3561916 3561916 125 125 1 6300.5009061033 6300.5009061033 6300.5009061033 39696311.667809
1361	2606699 33 3561916 3561916 125 125 1 2543.2754016374 2543.2754016374 2543.2754016374 6468249.7685737
1362	2606732 33 3561916 3561916 125 125 1 1844.0610445337 1844.0610445337 1844.0610445337 3400561.1359669
1363	2606765 33 3561916 3561916 125 125 1 3602.9395445961 3602.9395445961 3602.9395445961 12981173.362014
1364	2606798 33 3561916 3561916 125 125 1 4754.2429585962 4754.2429585962 4754.2429585962 22602826.109361
1365	2606831 33 3561916 3561916 125 125 1 4882.4070753163 4882.4070753163 4882.4070753163 23837898.849099
1366	2606864 33 3561916 3561916 125 125 1 2.5136174513493 2.5136174513493 2.5136174513493 6.3182726917276
1367	2606897 33 3561916 3561916 125 125 1 3.7308537292316 3.7308537292316 3.7308537292316 13.919269548921
1368	2606930 34 3561916 3561916 125 125 1 0.75174182478804 0.75174182478804 0.75174182478804 0.56511577113565
1369	2606964 33 3561916 3561916 125 125 1 4.2407606666774 4.2407606666774 4.2407606666774 17.984051032038
1370	2606997 33 3561916 3561916 125 125 1 12.454559720622 12.454559720622 12.454559720622 155.11605783453
1371	2607030 33 3561916 3561916 125 125 1 26.722026182351 26.722026182351 26.722026182351 714.06668329025

