version 3
run NoLoadSave-0-20230806-02:24:03-7570
attr configname NoLoadSave
attr datetime 20230806-02:24:03
attr datetimef 20230806-022403
attr experiment NoLoadSave
attr inifile omnetpp.ini
attr iterationvars ""
attr iterationvarsd ""
attr iterationvarsf ""
attr measurement ""
attr network Scenario
attr processid 7570
attr repetition 0
attr replication #0
attr resultdir results
attr runnumber 0
attr seedset 0
config image-path ../../images:../../../veins/images
config *.rsu[*].appl.loadModel false
config *.rsu[*].appl.saveModel false
config cmdenv-express-mode true
config cmdenv-autoflush true
config cmdenv-status-frequency 1s
config **.cmdenv-log-level info
config image-path ../../images
config network Scenario
config debug-on-errors true
config print-undisposed true
config sim-time-limit 600s
config **.scalar-recording true
config **.vector-recording true
config *.playgroundSizeX 12500m
config *.playgroundSizeY 7500m
config *.playgroundSizeZ 50m
config *.annotations.draw true
config *.obstacles.obstacles "xmldoc(\"config.xml\", \"//AnalogueModel[@type='SimpleObstacleShadowing']/obstacles\")"
config *.manager.updateInterval 1s
config *.manager.host "\"localhost\""
config *.manager.port 9999
config *.manager.autoShutdown true
config *.manager.launchConfig "xmldoc(\"sumo.launchd.xml\")"
config *.rsu[*].applType "\"RSUApplication\""
config *.rsu[0].appl.policySave "\"fed_p_0\""
config *.rsu[0].appl.valueSave "\"fed_v_0\""
config *.rsu[*].appl.headerLength "80 bit"
config *.rsu[*].appl.sendBeacons false
config *.rsu[*].appl.dataOnSch false
config *.rsu[*].appl.beaconInterval 1s
config *.rsu[*].appl.beaconUserPriority 7
config *.rsu[*].appl.dataUserPriority 5
config *.rsu[*].nic.phy80211p.antennaOffsetZ "0 m"
config *.connectionManager.sendDirect true
config *.connectionManager.maxInterfDist 2600m
config *.connectionManager.drawMaxIntfDist false
config *.**.nic.mac1609_4.useServiceChannel false
config *.**.nic.mac1609_4.txPower 20mW
config *.**.nic.mac1609_4.bitrate 6Mbps
config *.**.nic.phy80211p.minPowerLevel -110dBm
config *.**.nic.phy80211p.useNoiseFloor false
config *.**.nic.phy80211p.noiseFloor -98dBm
config *.**.nic.phy80211p.decider "xmldoc(\"config.xml\")"
config *.**.nic.phy80211p.analogueModels "xmldoc(\"config.xml\")"
config *.**.nic.phy80211p.usePropagationDelay true
config *.**.nic.phy80211p.antenna "xmldoc(\"antenna.xml\", \"/root/Antenna[@id='monopole']\")"
config *.node[*].nic.phy80211p.antennaOffsetY "0 m"
config *.node[*].nic.phy80211p.antennaOffsetZ "1.895 m"
config *.node[*].applType "\"VehicleApplication\""
config *.node[*].appl.headerLength "80 bit"
config *.node[*].appl.sendBeacons false
config *.node[*].appl.dataOnSch false
config *.node[*].appl.beaconInterval 1s
config *.node[*].veinsmobility.x 0
config *.node[*].veinsmobility.y 0
config *.node[*].veinsmobility.z 0
config *.node[*].veinsmobility.setHostSpeed false
config *.node[*0].veinsmobility.accidentCount 1
config *.node[*0].veinsmobility.accidentStart 73s
config *.node[*0].veinsmobility.accidentDuration 50s

vector 0 Scenario.node[0].veinsmobility posx ETV
vector 1 Scenario.node[0].veinsmobility posy ETV
vector 2 Scenario.node[1].veinsmobility posx ETV
vector 3 Scenario.node[1].veinsmobility posy ETV
vector 4 Scenario.node[2].veinsmobility posx ETV
vector 5 Scenario.node[2].veinsmobility posy ETV
vector 6 Scenario.node[0].veinsmobility speed ETV
vector 7 Scenario.node[3].veinsmobility posx ETV
vector 8 Scenario.node[3].veinsmobility posy ETV
vector 9 Scenario.node[4].veinsmobility posx ETV
vector 10 Scenario.node[4].veinsmobility posy ETV
vector 11 Scenario.node[0].veinsmobility acceleration ETV
vector 12 Scenario.node[0].veinsmobility co2emission ETV
vector 13 Scenario.node[1].veinsmobility speed ETV
vector 14 Scenario.node[2].veinsmobility speed ETV
vector 15 Scenario.node[5].veinsmobility posx ETV
vector 16 Scenario.node[5].veinsmobility posy ETV
vector 17 Scenario.node[6].veinsmobility posx ETV
vector 18 Scenario.node[6].veinsmobility posy ETV
vector 19 Scenario.node[1].veinsmobility acceleration ETV
vector 20 Scenario.node[1].veinsmobility co2emission ETV
vector 21 Scenario.node[2].veinsmobility acceleration ETV
vector 22 Scenario.node[2].veinsmobility co2emission ETV
vector 23 Scenario.node[3].veinsmobility speed ETV
vector 24 Scenario.node[4].veinsmobility speed ETV
vector 25 Scenario.node[7].veinsmobility posx ETV
vector 26 Scenario.node[7].veinsmobility posy ETV
vector 27 Scenario.node[8].veinsmobility posx ETV
vector 28 Scenario.node[8].veinsmobility posy ETV
vector 29 Scenario.node[9].veinsmobility posx ETV
vector 30 Scenario.node[9].veinsmobility posy ETV
vector 31 Scenario.node[3].veinsmobility acceleration ETV
vector 32 Scenario.node[3].veinsmobility co2emission ETV
vector 33 Scenario.node[4].veinsmobility acceleration ETV
vector 34 Scenario.node[4].veinsmobility co2emission ETV
vector 35 Scenario.node[5].veinsmobility speed ETV
vector 36 Scenario.node[6].veinsmobility speed ETV
vector 37 Scenario.node[10].veinsmobility posx ETV
vector 38 Scenario.node[10].veinsmobility posy ETV
vector 39 Scenario.node[11].veinsmobility posx ETV
vector 40 Scenario.node[11].veinsmobility posy ETV
vector 41 Scenario.node[5].veinsmobility acceleration ETV
vector 42 Scenario.node[5].veinsmobility co2emission ETV
vector 43 Scenario.node[6].veinsmobility acceleration ETV
vector 44 Scenario.node[6].veinsmobility co2emission ETV
vector 45 Scenario.node[7].veinsmobility speed ETV
vector 46 Scenario.node[8].veinsmobility speed ETV
vector 47 Scenario.node[9].veinsmobility speed ETV
vector 48 Scenario.node[12].veinsmobility posx ETV
vector 49 Scenario.node[12].veinsmobility posy ETV
vector 50 Scenario.node[13].veinsmobility posx ETV
vector 51 Scenario.node[13].veinsmobility posy ETV
vector 52 Scenario.node[7].veinsmobility acceleration ETV
vector 53 Scenario.node[7].veinsmobility co2emission ETV
vector 54 Scenario.node[8].veinsmobility acceleration ETV
vector 55 Scenario.node[8].veinsmobility co2emission ETV
vector 56 Scenario.node[9].veinsmobility acceleration ETV
vector 57 Scenario.node[9].veinsmobility co2emission ETV
vector 58 Scenario.node[10].veinsmobility speed ETV
vector 59 Scenario.node[11].veinsmobility speed ETV
vector 60 Scenario.node[14].veinsmobility posx ETV
vector 61 Scenario.node[14].veinsmobility posy ETV
vector 62 Scenario.node[15].veinsmobility posx ETV
vector 63 Scenario.node[15].veinsmobility posy ETV
vector 64 Scenario.node[10].veinsmobility acceleration ETV
vector 65 Scenario.node[10].veinsmobility co2emission ETV
vector 66 Scenario.node[11].veinsmobility acceleration ETV
vector 67 Scenario.node[11].veinsmobility co2emission ETV
vector 68 Scenario.node[12].veinsmobility speed ETV
vector 69 Scenario.node[13].veinsmobility speed ETV
vector 70 Scenario.node[16].veinsmobility posx ETV
vector 71 Scenario.node[16].veinsmobility posy ETV
vector 72 Scenario.node[17].veinsmobility posx ETV
vector 73 Scenario.node[17].veinsmobility posy ETV
vector 74 Scenario.node[18].veinsmobility posx ETV
vector 75 Scenario.node[18].veinsmobility posy ETV
vector 76 Scenario.node[12].veinsmobility acceleration ETV
vector 77 Scenario.node[12].veinsmobility co2emission ETV
vector 78 Scenario.node[13].veinsmobility acceleration ETV
vector 79 Scenario.node[13].veinsmobility co2emission ETV
vector 80 Scenario.node[14].veinsmobility speed ETV
vector 81 Scenario.node[15].veinsmobility speed ETV
vector 82 Scenario.node[19].veinsmobility posx ETV
vector 83 Scenario.node[19].veinsmobility posy ETV
vector 84 Scenario.node[20].veinsmobility posx ETV
vector 85 Scenario.node[20].veinsmobility posy ETV
vector 86 Scenario.node[14].veinsmobility acceleration ETV
vector 87 Scenario.node[14].veinsmobility co2emission ETV
vector 88 Scenario.node[15].veinsmobility acceleration ETV
vector 89 Scenario.node[15].veinsmobility co2emission ETV
vector 90 Scenario.node[16].veinsmobility speed ETV
vector 91 Scenario.node[17].veinsmobility speed ETV
vector 92 Scenario.node[18].veinsmobility speed ETV
vector 93 Scenario.node[21].veinsmobility posx ETV
vector 94 Scenario.node[21].veinsmobility posy ETV
vector 95 Scenario.node[22].veinsmobility posx ETV
vector 96 Scenario.node[22].veinsmobility posy ETV
vector 97 Scenario.node[16].veinsmobility acceleration ETV
vector 98 Scenario.node[16].veinsmobility co2emission ETV
vector 99 Scenario.node[17].veinsmobility acceleration ETV
vector 100 Scenario.node[17].veinsmobility co2emission ETV
vector 101 Scenario.node[18].veinsmobility acceleration ETV
vector 102 Scenario.node[18].veinsmobility co2emission ETV
vector 103 Scenario.node[19].veinsmobility speed ETV
vector 104 Scenario.node[20].veinsmobility speed ETV
vector 105 Scenario.node[23].veinsmobility posx ETV
vector 106 Scenario.node[23].veinsmobility posy ETV
vector 107 Scenario.node[24].veinsmobility posx ETV
vector 108 Scenario.node[24].veinsmobility posy ETV
vector 109 Scenario.node[25].veinsmobility posx ETV
vector 110 Scenario.node[25].veinsmobility posy ETV
vector 111 Scenario.node[19].veinsmobility acceleration ETV
vector 112 Scenario.node[19].veinsmobility co2emission ETV
vector 113 Scenario.node[20].veinsmobility acceleration ETV
vector 114 Scenario.node[20].veinsmobility co2emission ETV
vector 115 Scenario.node[21].veinsmobility speed ETV
vector 116 Scenario.node[22].veinsmobility speed ETV
vector 117 Scenario.node[26].veinsmobility posx ETV
vector 118 Scenario.node[26].veinsmobility posy ETV
vector 119 Scenario.node[27].veinsmobility posx ETV
vector 120 Scenario.node[27].veinsmobility posy ETV
vector 121 Scenario.node[21].veinsmobility acceleration ETV
vector 122 Scenario.node[21].veinsmobility co2emission ETV
vector 123 Scenario.node[22].veinsmobility acceleration ETV
vector 124 Scenario.node[22].veinsmobility co2emission ETV
vector 125 Scenario.node[23].veinsmobility speed ETV
vector 126 Scenario.node[24].veinsmobility speed ETV
vector 127 Scenario.node[25].veinsmobility speed ETV
vector 128 Scenario.node[28].veinsmobility posx ETV
vector 129 Scenario.node[28].veinsmobility posy ETV
vector 130 Scenario.node[29].veinsmobility posx ETV
vector 131 Scenario.node[29].veinsmobility posy ETV
vector 132 Scenario.node[23].veinsmobility acceleration ETV
vector 133 Scenario.node[23].veinsmobility co2emission ETV
vector 134 Scenario.node[24].veinsmobility acceleration ETV
vector 135 Scenario.node[24].veinsmobility co2emission ETV
vector 136 Scenario.node[25].veinsmobility acceleration ETV
vector 137 Scenario.node[25].veinsmobility co2emission ETV
vector 138 Scenario.node[26].veinsmobility speed ETV
vector 139 Scenario.node[27].veinsmobility speed ETV
vector 140 Scenario.node[30].veinsmobility posx ETV
vector 141 Scenario.node[30].veinsmobility posy ETV
vector 142 Scenario.node[31].veinsmobility posx ETV
vector 143 Scenario.node[31].veinsmobility posy ETV
vector 144 Scenario.node[26].veinsmobility acceleration ETV
vector 145 Scenario.node[26].veinsmobility co2emission ETV
vector 146 Scenario.node[27].veinsmobility acceleration ETV
vector 147 Scenario.node[27].veinsmobility co2emission ETV
vector 148 Scenario.node[28].veinsmobility speed ETV
vector 149 Scenario.node[29].veinsmobility speed ETV
vector 150 Scenario.node[32].veinsmobility posx ETV
vector 151 Scenario.node[32].veinsmobility posy ETV
vector 152 Scenario.node[33].veinsmobility posx ETV
vector 153 Scenario.node[33].veinsmobility posy ETV
vector 154 Scenario.node[34].veinsmobility posx ETV
vector 155 Scenario.node[34].veinsmobility posy ETV
vector 156 Scenario.node[28].veinsmobility acceleration ETV
vector 157 Scenario.node[28].veinsmobility co2emission ETV
vector 158 Scenario.node[29].veinsmobility acceleration ETV
vector 159 Scenario.node[29].veinsmobility co2emission ETV
vector 160 Scenario.node[30].veinsmobility speed ETV
vector 161 Scenario.node[31].veinsmobility speed ETV
vector 162 Scenario.node[35].veinsmobility posx ETV
vector 163 Scenario.node[35].veinsmobility posy ETV
vector 164 Scenario.node[36].veinsmobility posx ETV
vector 165 Scenario.node[36].veinsmobility posy ETV
vector 166 Scenario.node[30].veinsmobility acceleration ETV
vector 167 Scenario.node[30].veinsmobility co2emission ETV
vector 168 Scenario.node[31].veinsmobility acceleration ETV
vector 169 Scenario.node[31].veinsmobility co2emission ETV
vector 170 Scenario.node[32].veinsmobility speed ETV
vector 171 Scenario.node[33].veinsmobility speed ETV
vector 172 Scenario.node[34].veinsmobility speed ETV
vector 173 Scenario.node[37].veinsmobility posx ETV
vector 174 Scenario.node[37].veinsmobility posy ETV
vector 175 Scenario.node[38].veinsmobility posx ETV
vector 176 Scenario.node[38].veinsmobility posy ETV
vector 177 Scenario.node[32].veinsmobility acceleration ETV
vector 178 Scenario.node[32].veinsmobility co2emission ETV
vector 179 Scenario.node[33].veinsmobility acceleration ETV
vector 180 Scenario.node[33].veinsmobility co2emission ETV
vector 181 Scenario.node[34].veinsmobility acceleration ETV
vector 182 Scenario.node[34].veinsmobility co2emission ETV
vector 183 Scenario.node[35].veinsmobility speed ETV
vector 184 Scenario.node[36].veinsmobility speed ETV
vector 185 Scenario.node[39].veinsmobility posx ETV
vector 186 Scenario.node[39].veinsmobility posy ETV
vector 187 Scenario.node[40].veinsmobility posx ETV
vector 188 Scenario.node[40].veinsmobility posy ETV
vector 189 Scenario.node[35].veinsmobility acceleration ETV
vector 190 Scenario.node[35].veinsmobility co2emission ETV
vector 191 Scenario.node[36].veinsmobility acceleration ETV
vector 192 Scenario.node[36].veinsmobility co2emission ETV
vector 193 Scenario.node[37].veinsmobility speed ETV
vector 194 Scenario.node[38].veinsmobility speed ETV
vector 195 Scenario.node[41].veinsmobility posx ETV
vector 196 Scenario.node[41].veinsmobility posy ETV
vector 197 Scenario.node[42].veinsmobility posx ETV
vector 198 Scenario.node[42].veinsmobility posy ETV
vector 199 Scenario.node[43].veinsmobility posx ETV
vector 200 Scenario.node[43].veinsmobility posy ETV
vector 201 Scenario.node[37].veinsmobility acceleration ETV
vector 202 Scenario.node[37].veinsmobility co2emission ETV
vector 203 Scenario.node[38].veinsmobility acceleration ETV
vector 204 Scenario.node[38].veinsmobility co2emission ETV
vector 205 Scenario.node[39].veinsmobility speed ETV
vector 206 Scenario.node[40].veinsmobility speed ETV
vector 207 Scenario.node[44].veinsmobility posx ETV
vector 208 Scenario.node[44].veinsmobility posy ETV
vector 209 Scenario.node[45].veinsmobility posx ETV
vector 210 Scenario.node[45].veinsmobility posy ETV
vector 211 Scenario.node[39].veinsmobility acceleration ETV
vector 212 Scenario.node[39].veinsmobility co2emission ETV
vector 213 Scenario.node[40].veinsmobility acceleration ETV
vector 214 Scenario.node[40].veinsmobility co2emission ETV
vector 215 Scenario.node[41].veinsmobility speed ETV
vector 216 Scenario.node[42].veinsmobility speed ETV
vector 217 Scenario.node[43].veinsmobility speed ETV
vector 218 Scenario.node[46].veinsmobility posx ETV
vector 219 Scenario.node[46].veinsmobility posy ETV
vector 220 Scenario.node[47].veinsmobility posx ETV
vector 221 Scenario.node[47].veinsmobility posy ETV
vector 222 Scenario.node[41].veinsmobility acceleration ETV
vector 223 Scenario.node[41].veinsmobility co2emission ETV
vector 224 Scenario.node[42].veinsmobility acceleration ETV
vector 225 Scenario.node[42].veinsmobility co2emission ETV
vector 226 Scenario.node[43].veinsmobility acceleration ETV
vector 227 Scenario.node[43].veinsmobility co2emission ETV
vector 228 Scenario.node[44].veinsmobility speed ETV
vector 229 Scenario.node[45].veinsmobility speed ETV
vector 230 Scenario.node[48].veinsmobility posx ETV
vector 231 Scenario.node[48].veinsmobility posy ETV
vector 232 Scenario.node[49].veinsmobility posx ETV
vector 233 Scenario.node[49].veinsmobility posy ETV
vector 234 Scenario.node[50].veinsmobility posx ETV
vector 235 Scenario.node[50].veinsmobility posy ETV
vector 236 Scenario.node[44].veinsmobility acceleration ETV
vector 237 Scenario.node[44].veinsmobility co2emission ETV
vector 238 Scenario.node[45].veinsmobility acceleration ETV
vector 239 Scenario.node[45].veinsmobility co2emission ETV
vector 240 Scenario.node[46].veinsmobility speed ETV
vector 241 Scenario.node[47].veinsmobility speed ETV
vector 242 Scenario.node[51].veinsmobility posx ETV
vector 243 Scenario.node[51].veinsmobility posy ETV
vector 244 Scenario.node[52].veinsmobility posx ETV
vector 245 Scenario.node[52].veinsmobility posy ETV
vector 246 Scenario.node[46].veinsmobility acceleration ETV
vector 247 Scenario.node[46].veinsmobility co2emission ETV
vector 248 Scenario.node[47].veinsmobility acceleration ETV
vector 249 Scenario.node[47].veinsmobility co2emission ETV
vector 250 Scenario.node[48].veinsmobility speed ETV
vector 251 Scenario.node[49].veinsmobility speed ETV
vector 252 Scenario.node[50].veinsmobility speed ETV
vector 253 Scenario.node[53].veinsmobility posx ETV
vector 254 Scenario.node[53].veinsmobility posy ETV
vector 255 Scenario.node[54].veinsmobility posx ETV
vector 256 Scenario.node[54].veinsmobility posy ETV
vector 257 Scenario.node[48].veinsmobility acceleration ETV
vector 258 Scenario.node[48].veinsmobility co2emission ETV
vector 259 Scenario.node[49].veinsmobility acceleration ETV
vector 260 Scenario.node[49].veinsmobility co2emission ETV
vector 261 Scenario.node[50].veinsmobility acceleration ETV
vector 262 Scenario.node[50].veinsmobility co2emission ETV
vector 263 Scenario.node[51].veinsmobility speed ETV
vector 264 Scenario.node[52].veinsmobility speed ETV
vector 265 Scenario.node[55].veinsmobility posx ETV
vector 266 Scenario.node[55].veinsmobility posy ETV
vector 267 Scenario.node[56].veinsmobility posx ETV
vector 268 Scenario.node[56].veinsmobility posy ETV
vector 269 Scenario.node[51].veinsmobility acceleration ETV
vector 270 Scenario.node[51].veinsmobility co2emission ETV
vector 271 Scenario.node[52].veinsmobility acceleration ETV
vector 272 Scenario.node[52].veinsmobility co2emission ETV
vector 273 Scenario.node[53].veinsmobility speed ETV
vector 274 Scenario.node[54].veinsmobility speed ETV
vector 275 Scenario.node[57].veinsmobility posx ETV
vector 276 Scenario.node[57].veinsmobility posy ETV
vector 277 Scenario.node[58].veinsmobility posx ETV
vector 278 Scenario.node[58].veinsmobility posy ETV
vector 279 Scenario.node[59].veinsmobility posx ETV
vector 280 Scenario.node[59].veinsmobility posy ETV
vector 281 Scenario.node[53].veinsmobility acceleration ETV
vector 282 Scenario.node[53].veinsmobility co2emission ETV
vector 283 Scenario.node[54].veinsmobility acceleration ETV
vector 284 Scenario.node[54].veinsmobility co2emission ETV
vector 285 Scenario.node[55].veinsmobility speed ETV
vector 286 Scenario.node[56].veinsmobility speed ETV
vector 287 Scenario.node[60].veinsmobility posx ETV
vector 288 Scenario.node[60].veinsmobility posy ETV
vector 289 Scenario.node[61].veinsmobility posx ETV
vector 290 Scenario.node[61].veinsmobility posy ETV
vector 291 Scenario.node[55].veinsmobility acceleration ETV
vector 292 Scenario.node[55].veinsmobility co2emission ETV
vector 293 Scenario.node[56].veinsmobility acceleration ETV
vector 294 Scenario.node[56].veinsmobility co2emission ETV
vector 295 Scenario.node[57].veinsmobility speed ETV
vector 296 Scenario.node[58].veinsmobility speed ETV
vector 297 Scenario.node[59].veinsmobility speed ETV
vector 298 Scenario.node[62].veinsmobility posx ETV
vector 299 Scenario.node[62].veinsmobility posy ETV
vector 300 Scenario.node[63].veinsmobility posx ETV
vector 301 Scenario.node[63].veinsmobility posy ETV
vector 302 Scenario.node[57].veinsmobility acceleration ETV
vector 303 Scenario.node[57].veinsmobility co2emission ETV
vector 304 Scenario.node[58].veinsmobility acceleration ETV
vector 305 Scenario.node[58].veinsmobility co2emission ETV
vector 306 Scenario.node[59].veinsmobility acceleration ETV
vector 307 Scenario.node[59].veinsmobility co2emission ETV
vector 308 Scenario.node[60].veinsmobility speed ETV
vector 309 Scenario.node[61].veinsmobility speed ETV
vector 310 Scenario.node[64].veinsmobility posx ETV
vector 311 Scenario.node[64].veinsmobility posy ETV
vector 312 Scenario.node[65].veinsmobility posx ETV
vector 313 Scenario.node[65].veinsmobility posy ETV
vector 314 Scenario.node[60].veinsmobility acceleration ETV
vector 315 Scenario.node[60].veinsmobility co2emission ETV
vector 316 Scenario.node[61].veinsmobility acceleration ETV
vector 317 Scenario.node[61].veinsmobility co2emission ETV
vector 318 Scenario.node[62].veinsmobility speed ETV
vector 319 Scenario.node[63].veinsmobility speed ETV
vector 320 Scenario.node[66].veinsmobility posx ETV
vector 321 Scenario.node[66].veinsmobility posy ETV
vector 322 Scenario.node[67].veinsmobility posx ETV
vector 323 Scenario.node[67].veinsmobility posy ETV
vector 324 Scenario.node[68].veinsmobility posx ETV
vector 325 Scenario.node[68].veinsmobility posy ETV
vector 326 Scenario.node[62].veinsmobility acceleration ETV
vector 327 Scenario.node[62].veinsmobility co2emission ETV
vector 328 Scenario.node[63].veinsmobility acceleration ETV
vector 329 Scenario.node[63].veinsmobility co2emission ETV
vector 330 Scenario.node[64].veinsmobility speed ETV
vector 331 Scenario.node[65].veinsmobility speed ETV
vector 332 Scenario.node[69].veinsmobility posx ETV
vector 333 Scenario.node[69].veinsmobility posy ETV
vector 334 Scenario.node[70].veinsmobility posx ETV
vector 335 Scenario.node[70].veinsmobility posy ETV
vector 336 Scenario.node[64].veinsmobility acceleration ETV
vector 337 Scenario.node[64].veinsmobility co2emission ETV
vector 338 Scenario.node[65].veinsmobility acceleration ETV
vector 339 Scenario.node[65].veinsmobility co2emission ETV
vector 340 Scenario.node[66].veinsmobility speed ETV
vector 341 Scenario.node[67].veinsmobility speed ETV
vector 342 Scenario.node[68].veinsmobility speed ETV
vector 343 Scenario.node[71].veinsmobility posx ETV
vector 344 Scenario.node[71].veinsmobility posy ETV
vector 345 Scenario.node[72].veinsmobility posx ETV
vector 346 Scenario.node[72].veinsmobility posy ETV
vector 347 Scenario.node[66].veinsmobility acceleration ETV
vector 348 Scenario.node[66].veinsmobility co2emission ETV
vector 349 Scenario.node[67].veinsmobility acceleration ETV
vector 350 Scenario.node[67].veinsmobility co2emission ETV
vector 351 Scenario.node[68].veinsmobility acceleration ETV
vector 352 Scenario.node[68].veinsmobility co2emission ETV
vector 353 Scenario.node[69].veinsmobility speed ETV
vector 354 Scenario.node[70].veinsmobility speed ETV
vector 355 Scenario.node[73].veinsmobility posx ETV
vector 356 Scenario.node[73].veinsmobility posy ETV
vector 357 Scenario.node[74].veinsmobility posx ETV
vector 358 Scenario.node[74].veinsmobility posy ETV
vector 359 Scenario.node[75].veinsmobility posx ETV
vector 360 Scenario.node[75].veinsmobility posy ETV
vector 361 Scenario.node[69].veinsmobility acceleration ETV
vector 362 Scenario.node[69].veinsmobility co2emission ETV
vector 363 Scenario.node[70].veinsmobility acceleration ETV
vector 364 Scenario.node[70].veinsmobility co2emission ETV
vector 365 Scenario.node[71].veinsmobility speed ETV
vector 366 Scenario.node[72].veinsmobility speed ETV
vector 367 Scenario.node[76].veinsmobility posx ETV
vector 368 Scenario.node[76].veinsmobility posy ETV
vector 369 Scenario.node[77].veinsmobility posx ETV
vector 370 Scenario.node[77].veinsmobility posy ETV
vector 371 Scenario.node[71].veinsmobility acceleration ETV
vector 372 Scenario.node[71].veinsmobility co2emission ETV
vector 373 Scenario.node[72].veinsmobility acceleration ETV
vector 374 Scenario.node[72].veinsmobility co2emission ETV
vector 375 Scenario.node[73].veinsmobility speed ETV
vector 376 Scenario.node[74].veinsmobility speed ETV
vector 377 Scenario.node[75].veinsmobility speed ETV
vector 378 Scenario.node[78].veinsmobility posx ETV
vector 379 Scenario.node[78].veinsmobility posy ETV
vector 380 Scenario.node[73].veinsmobility acceleration ETV
vector 381 Scenario.node[73].veinsmobility co2emission ETV
vector 382 Scenario.node[74].veinsmobility acceleration ETV
vector 383 Scenario.node[74].veinsmobility co2emission ETV
vector 384 Scenario.node[75].veinsmobility acceleration ETV
vector 385 Scenario.node[75].veinsmobility co2emission ETV
vector 386 Scenario.node[76].veinsmobility speed ETV
vector 387 Scenario.node[77].veinsmobility speed ETV
vector 388 Scenario.node[79].veinsmobility posx ETV
vector 389 Scenario.node[79].veinsmobility posy ETV
vector 390 Scenario.node[80].veinsmobility posx ETV
vector 391 Scenario.node[80].veinsmobility posy ETV
vector 392 Scenario.node[76].veinsmobility acceleration ETV
vector 393 Scenario.node[76].veinsmobility co2emission ETV
vector 394 Scenario.node[77].veinsmobility acceleration ETV
vector 395 Scenario.node[77].veinsmobility co2emission ETV
vector 396 Scenario.node[78].veinsmobility speed ETV
vector 397 Scenario.node[81].veinsmobility posx ETV
vector 398 Scenario.node[81].veinsmobility posy ETV
vector 399 Scenario.node[82].veinsmobility posx ETV
vector 400 Scenario.node[82].veinsmobility posy ETV
vector 401 Scenario.node[83].veinsmobility posx ETV
vector 402 Scenario.node[83].veinsmobility posy ETV
vector 403 Scenario.node[78].veinsmobility acceleration ETV
vector 404 Scenario.node[78].veinsmobility co2emission ETV
vector 405 Scenario.node[79].veinsmobility speed ETV
vector 406 Scenario.node[80].veinsmobility speed ETV
vector 407 Scenario.node[84].veinsmobility posx ETV
vector 408 Scenario.node[84].veinsmobility posy ETV
vector 409 Scenario.node[85].veinsmobility posx ETV
vector 410 Scenario.node[85].veinsmobility posy ETV
vector 411 Scenario.node[79].veinsmobility acceleration ETV
vector 412 Scenario.node[79].veinsmobility co2emission ETV
vector 413 Scenario.node[80].veinsmobility acceleration ETV
vector 414 Scenario.node[80].veinsmobility co2emission ETV
vector 415 Scenario.node[81].veinsmobility speed ETV
vector 416 Scenario.node[82].veinsmobility speed ETV
vector 417 Scenario.node[83].veinsmobility speed ETV
vector 418 Scenario.node[86].veinsmobility posx ETV
vector 419 Scenario.node[86].veinsmobility posy ETV
vector 420 Scenario.node[87].veinsmobility posx ETV
vector 421 Scenario.node[87].veinsmobility posy ETV
vector 422 Scenario.node[81].veinsmobility acceleration ETV
vector 423 Scenario.node[81].veinsmobility co2emission ETV
vector 424 Scenario.node[82].veinsmobility acceleration ETV
vector 425 Scenario.node[82].veinsmobility co2emission ETV
vector 426 Scenario.node[83].veinsmobility acceleration ETV
vector 427 Scenario.node[83].veinsmobility co2emission ETV
vector 428 Scenario.node[84].veinsmobility speed ETV
vector 429 Scenario.node[85].veinsmobility speed ETV
vector 430 Scenario.node[88].veinsmobility posx ETV
vector 431 Scenario.node[88].veinsmobility posy ETV
vector 432 Scenario.node[89].veinsmobility posx ETV
vector 433 Scenario.node[89].veinsmobility posy ETV
vector 434 Scenario.node[90].veinsmobility posx ETV
vector 435 Scenario.node[90].veinsmobility posy ETV
vector 436 Scenario.node[84].veinsmobility acceleration ETV
vector 437 Scenario.node[84].veinsmobility co2emission ETV
vector 438 Scenario.node[85].veinsmobility acceleration ETV
vector 439 Scenario.node[85].veinsmobility co2emission ETV
vector 440 Scenario.node[86].veinsmobility speed ETV
vector 441 Scenario.node[87].veinsmobility speed ETV
vector 442 Scenario.node[91].veinsmobility posx ETV
vector 443 Scenario.node[91].veinsmobility posy ETV
vector 444 Scenario.node[92].veinsmobility posx ETV
vector 445 Scenario.node[92].veinsmobility posy ETV
vector 446 Scenario.node[86].veinsmobility acceleration ETV
vector 447 Scenario.node[86].veinsmobility co2emission ETV
vector 448 Scenario.node[87].veinsmobility acceleration ETV
vector 449 Scenario.node[87].veinsmobility co2emission ETV
vector 450 Scenario.node[88].veinsmobility speed ETV
vector 451 Scenario.node[89].veinsmobility speed ETV
vector 452 Scenario.node[90].veinsmobility speed ETV
vector 453 Scenario.node[93].veinsmobility posx ETV
vector 454 Scenario.node[93].veinsmobility posy ETV
vector 455 Scenario.node[94].veinsmobility posx ETV
vector 456 Scenario.node[94].veinsmobility posy ETV
vector 457 Scenario.node[88].veinsmobility acceleration ETV
vector 458 Scenario.node[88].veinsmobility co2emission ETV
vector 459 Scenario.node[89].veinsmobility acceleration ETV
vector 460 Scenario.node[89].veinsmobility co2emission ETV
vector 461 Scenario.node[90].veinsmobility acceleration ETV
vector 462 Scenario.node[90].veinsmobility co2emission ETV
vector 463 Scenario.node[91].veinsmobility speed ETV
vector 464 Scenario.node[92].veinsmobility speed ETV
vector 465 Scenario.node[95].veinsmobility posx ETV
vector 466 Scenario.node[95].veinsmobility posy ETV
vector 467 Scenario.node[96].veinsmobility posx ETV
vector 468 Scenario.node[96].veinsmobility posy ETV
vector 469 Scenario.node[91].veinsmobility acceleration ETV
vector 470 Scenario.node[91].veinsmobility co2emission ETV
vector 471 Scenario.node[92].veinsmobility acceleration ETV
vector 472 Scenario.node[92].veinsmobility co2emission ETV
vector 473 Scenario.node[93].veinsmobility speed ETV
vector 474 Scenario.node[94].veinsmobility speed ETV
vector 475 Scenario.node[97].veinsmobility posx ETV
vector 476 Scenario.node[97].veinsmobility posy ETV
vector 477 Scenario.node[98].veinsmobility posx ETV
vector 478 Scenario.node[98].veinsmobility posy ETV
vector 479 Scenario.node[93].veinsmobility acceleration ETV
vector 480 Scenario.node[93].veinsmobility co2emission ETV
vector 481 Scenario.node[94].veinsmobility acceleration ETV
vector 482 Scenario.node[94].veinsmobility co2emission ETV
vector 483 Scenario.node[95].veinsmobility speed ETV
vector 484 Scenario.node[96].veinsmobility speed ETV
vector 485 Scenario.node[99].veinsmobility posx ETV
vector 486 Scenario.node[99].veinsmobility posy ETV
vector 487 Scenario.node[100].veinsmobility posx ETV
vector 488 Scenario.node[100].veinsmobility posy ETV
vector 489 Scenario.node[95].veinsmobility acceleration ETV
vector 490 Scenario.node[95].veinsmobility co2emission ETV
vector 491 Scenario.node[96].veinsmobility acceleration ETV
vector 492 Scenario.node[96].veinsmobility co2emission ETV
vector 493 Scenario.node[97].veinsmobility speed ETV
vector 494 Scenario.node[98].veinsmobility speed ETV
vector 495 Scenario.node[101].veinsmobility posx ETV
vector 496 Scenario.node[101].veinsmobility posy ETV
vector 497 Scenario.node[102].veinsmobility posx ETV
vector 498 Scenario.node[102].veinsmobility posy ETV
vector 499 Scenario.node[97].veinsmobility acceleration ETV
vector 500 Scenario.node[97].veinsmobility co2emission ETV
vector 501 Scenario.node[98].veinsmobility acceleration ETV
vector 502 Scenario.node[98].veinsmobility co2emission ETV
vector 503 Scenario.node[99].veinsmobility speed ETV
vector 504 Scenario.node[100].veinsmobility speed ETV
0	2	1	3622.4791520242
0	21	2	3624.1078358025
0	90	3	3625.6847281593
0	213	4	3627.1483785473
0	351	5	3628.4330729982
0	569	6	3629.2793494111
0	895	7	3629.6622158279
0	1338	8	3629.8204743811
0	1889	9	3627.7001215546
0	2332	10	3621.3631084805
0	3129	11	3615.3040981142
0	3947	12	3607.3835980068
0	4933	13	3597.6795166048
0	6338	14	3585.1504040044
0	7648	15	3572.5262302336
0	9524	16	3558.7082898673
0	10952	17	3544.3594656529
0	12667	18	3528.9434663493
0	14534	19	3514.5090884663
0	16806	20	3500.2991136747
0	18867	21	3484.9731899435
0	22849	22	3470.3078877747
0	25453	23	3456.3693779171
0	28578	24	3440.9019347964
0	32321	25	3425.7942294439
0	35274	26	3411.6566000577
0	39344	27	3408.0256621037
0	42606	28	3407.0157740673
0	47938	29	3405.1267003896
0	52032	30	3393.0771034241
0	57783	31	3378.8469182597
0	62071	32	3364.6349434905
0	68684	33	3349.4101660788
0	74086	34	3334.6378840502
0	80160	35	3319.8148741596
0	88853	36	3304.5135993035
0	98280	37	3289.1692870424
0	105238	38	3274.761710792
0	116014	39	3262.4998749618
0	121577	40	3253.2446589868
0	131150	41	3247.8192242119
0	138240	42	3240.6236038371
0	149697	43	3234.3552411325
0	156998	44	3231.3055684573
0	172034	45	3226.9640943163
0	183251	46	3220.4647370232
0	199120	47	3215.0621452658
1	2	1	3130.1488200841
1	21	2	3114.829674286
1	90	3	3099.702533817
1	213	4	3085.285811306
1	351	5	3072.6859290908
1	569	6	3064.5121373951
1	895	7	3060.8142081009
1	1338	8	3055.4415790458
1	1889	9	3049.594001058
1	2332	10	3052.5172636325
1	3129	11	3057.8637762857
1	3947	12	3064.4566925682
1	4933	13	3072.6012093662
1	6338	14	3080.0255396449
1	7648	15	3086.9661265741
1	9524	16	3092.6236587574
1	10952	17	3092.5091829721
1	12667	18	3092.3861931995
1	14534	19	3091.8378343952
1	16806	20	3088.6910037027
1	18867	21	3087.0892426358
1	22849	22	3086.4371293971
1	25453	23	3082.8275493483
1	28578	24	3082.2237478053
1	32321	25	3081.6339893214
1	35274	26	3082.8133240288
1	39344	27	3095.7404162847
1	42606	28	3110.3021106915
1	47938	29	3124.8497110762
1	52032	30	3131.4656373893
1	57783	31	3130.6796072482
1	62071	32	3129.7242501835
1	68684	33	3128.7008105212
1	74086	34	3127.7077884938
1	80160	35	3126.5404263243
1	88853	36	3124.7324713205
1	98280	37	3122.5893258749
1	105238	38	3117.8340679332
1	116014	39	3111.8709340143
1	121577	40	3107.8311958722
1	131150	41	3106.4923857121
1	138240	42	3105.0972815122
1	149697	43	3099.7869791678
1	156998	44	3090.5830927135
1	172034	45	3079.6404342909
1	183251	46	3066.9007893673
1	199120	47	3057.9369203357
2	21	2	7212.2148593444
2	90	3	7210.7083561639
2	213	4	7207.6956875486
2	351	5	7202.1563083706
2	569	6	7194.2440006696
2	895	7	7184.0413510542
2	1338	8	7171.8170641366
2	1889	9	7158.256165051
2	2332	10	7144.9455857744
2	3129	11	7130.768310752
2	3947	12	7121.0324758167
2	4933	13	7115.818491703
2	6338	14	7110.8550274599
2	7648	15	7111.6221258146
2	9524	16	7113.2538165109
2	10952	17	7115.1418290811
2	12667	18	7117.290094095
2	14534	19	7119.8151709822
2	16806	20	7121.6295129539
2	18867	21	7121.8403458999
2	22849	22	7117.1367774776
2	25453	23	7109.9567625247
2	28578	24	7101.5242871089
2	32321	25	7091.3576390454
2	35274	26	7079.4037564633
2	39344	27	7065.347888439
2	42606	28	7051.8980124014
2	47938	29	7038.535162804
2	52032	30	7025.5721904377
2	57783	31	7012.1291395123
2	62071	32	6998.9594383062
2	68684	33	6987.799831252
2	74086	34	6976.1569595312
2	80160	35	6965.1442376449
2	88853	36	6953.6146471318
2	98280	37	6942.0578889837
2	105238	38	6931.0867117866
2	116014	39	6919.8045012702
2	121577	40	6908.1399850292
2	131150	41	6897.0291104349
2	138240	42	6888.6941212979
2	149697	43	6883.5744666991
2	156998	44	6877.8942639847
2	172034	45	6877.9499480137
2	183251	46	6882.2581176499
2	199120	47	6887.8907891872
3	21	2	3012.6589218262
3	90	3	3012.9254806543
3	213	4	3013.4585385501
3	351	5	3014.4386695189
3	569	6	3015.838663555
3	895	7	3017.6439078849
3	1338	8	3019.8068582436
3	1889	9	3022.1245476275
3	2332	10	3024.2902383887
3	3129	11	3026.5969444229
3	3947	12	3028.1810082968
3	4933	13	3029.3793755902
3	6338	14	3034.8178224738
3	7648	15	3042.3105415441
3	9524	16	3051.1548632123
3	10952	17	3061.3885371077
3	12667	18	3073.0328682629
3	14534	19	3086.7196486542
3	16806	20	3096.5540027078
3	18867	21	3102.4383104165
3	22849	22	3105.3681556667
3	25453	23	3106.2157397247
3	28578	24	3107.6477026362
3	32321	25	3109.4706715421
3	35274	26	3111.6141072266
3	39344	27	3114.1410588683
3	42606	28	3117.0156213667
3	47938	29	3120.3624806988
3	52032	30	3124.1030867367
3	57783	31	3128.7324817574
3	62071	32	3133.297311756
3	68684	33	3141.2362793494
3	74086	34	3149.5169465717
3	80160	35	3157.3463503733
3	88853	36	3165.5432176625
3	98280	37	3173.7596425305
3	105238	38	3181.5609045907
3	116014	39	3189.5833327473
3	121577	40	3197.8776065857
3	131150	41	3205.7782031097
3	138240	42	3211.7049540279
3	149697	43	3215.3453807994
3	156998	44	3220.3480634729
3	172034	45	3227.7706778485
3	183251	46	3234.2518955834
3	199120	47	3242.0954184736
4	21	2	6136.3569402558
4	90	3	6138.0679516084
4	213	4	6141.0202699819
4	351	5	6145.3851378113
4	569	6	6151.2923536893
4	895	7	6158.4700952895
4	1338	8	6167.5206197281
4	1889	9	6178.8545837852
4	2332	10	6191.2993349876
4	3129	11	6203.5598352994
4	3947	12	6215.9446555264
4	4933	13	6226.7466925902
4	6338	14	6234.7913035884
4	7648	15	6238.6265461411
4	9524	16	6240.9399030366
4	10952	17	6238.5500695962
4	12667	18	6234.2201521658
4	14534	19	6228.6023142548
4	16806	20	6222.8651621918
4	18867	21	6219.3340196604
4	22849	22	6214.8376139871
4	25453	23	6209.6751939254
4	28578	24	6204.127090193
4	32321	25	6198.028145538
4	35274	26	6192.0582473071
4	39344	27	6185.8008313013
4	42606	28	6180.9106953247
4	47938	29	6176.6546803324
4	52032	30	6172.5107381471
4	57783	31	6169.2427639146
4	62071	32	6166.276683337
4	68684	33	6167.6027404391
4	74086	34	6173.6608971298
4	80160	35	6181.9606153064
4	88853	36	6192.3286951439
4	98280	37	6204.7154694362
4	105238	38	6218.7593668037
4	116014	39	6234.1247778675
4	121577	40	6247.3813140161
4	131150	41	6260.6081137167
4	138240	42	6273.8543587683
4	149697	43	6286.5711253808
4	156998	44	6298.4364795276
4	172034	45	6310.757107667
4	183251	46	6322.4821598266
4	199120	47	6334.812561679
5	21	2	3640.6227449235
5	90	3	3639.726031644
5	213	4	3638.1787695016
5	351	5	3635.8912131156
5	569	6	3632.7915952616
5	895	7	3628.9536319609
5	1338	8	3624.1142851883
5	1889	9	3618.0539753407
5	2332	10	3611.3997237582
5	3129	11	3604.8439917653
5	3947	12	3598.2217854831
5	4933	13	3592.4458988417
5	6338	14	3588.1444174706
5	7648	15	3585.5893360595
5	9524	16	3580.3942444454
5	10952	17	3573.9415112653
5	12667	18	3566.6506799111
5	14534	19	3557.1912134331
5	16806	20	3547.530842579
5	18867	21	3541.5850098701
5	22849	22	3533.6890805351
5	25453	23	3524.259326472
5	28578	24	3513.5047325853
5	32321	25	3501.6823738001
5	35274	26	3490.1101620834
5	39344	27	3477.5500467351
5	42606	28	3464.127999549
5	47938	29	3451.3495359307
5	52032	30	3438.9075650855
5	57783	31	3429.095642451
5	62071	32	3420.1901398111
5	68684	33	3412.8770417846
5	74086	34	3408.4686125738
5	80160	35	3403.7853733495
5	88853	36	3397.9350303448
5	98280	37	3390.9456090182
5	105238	38	3383.0211313897
5	116014	39	3373.9289751156
5	121577	40	3361.4305664377
5	131150	41	3348.9601936113
5	138240	42	3336.4714874933
5	149697	43	3324.4819794949
5	156998	44	3311.702221333
5	172034	45	3298.0516303359
5	183251	46	3285.0609053795
5	199120	47	3271.397448049
6	21	2	15.406206221476
6	90	3	15.209866202569
6	213	4	14.49151256561
6	351	5	12.665807774197
6	569	6	8.2178716257677
6	895	7	3.7178716257677
6	1338	8	5.3773668920385
6	1889	9	6.7761212444395
6	2332	10	7.2481071738664
6	3129	11	8.0888772475438
6	3947	12	10.305812741271
6	4933	13	12.669501637937
6	6338	14	14.579738859287
6	7648	15	14.407903005269
6	9524	16	15.256429978919
6	10952	17	14.349882722942
6	12667	18	15.417136537323
6	14534	19	14.456539274955
6	16806	20	14.558347650261
6	18867	21	15.468609303601
6	22849	22	14.678972146676
6	25453	23	14.784283207513
6	28578	24	15.478357753965
6	32321	25	15.118366136046
6	35274	26	14.385293124749
6	39344	27	14.995309082598
6	42606	28	14.595854688359
6	47938	29	14.828121145808
6	52032	30	14.547105688292
6	57783	31	14.271115113182
6	62071	32	14.243252027051
6	68684	33	15.258283613243
6	74086	34	14.804792392806
6	80160	35	14.871957001665
6	88853	36	15.412235220934
6	98280	37	15.493526366323
6	105238	38	15.35673334684
6	116014	39	13.635177161489
6	121577	40	10.124947315919
6	131150	41	5.6249473159186
6	138240	42	7.5326298891784
6	149697	43	7.2429211529813
6	156998	44	9.7962646945522
6	172034	45	11.903979476462
6	183251	46	14.450454148921
6	199120	47	10.600016247799
7	90	3	4277.5150731722
7	213	4	4275.0325643911
7	351	5	4270.5093503784
7	569	6	4264.1168856786
7	895	7	4255.8517462435
7	1338	8	4245.7097433714
7	1889	9	4233.0816993321
7	2332	10	4219.7132331948
7	3129	11	4206.572345847
7	3947	12	4193.2142128302
7	4933	13	4179.6953862707
7	6338	14	4166.4326389238
7	7648	15	4153.9917222408
7	9524	16	4140.9784571874
7	10952	17	4128.7869244272
7	12667	18	4121.3262575541
7	14534	19	4114.7137634437
7	16806	20	4110.318662462
7	18867	21	4108.2232414226
7	22849	22	4108.1308454672
7	25453	23	4108.1163230681
7	28578	24	4108.1119489589
7	32321	25	4108.1116138425
7	35274	26	4108.1116138425
7	39344	27	4108.1116138425
7	42606	28	4108.1116138425
7	47938	29	4108.1116138425
7	52032	30	4108.1115522442
7	57783	31	4108.1115522442
7	62071	32	4108.1115522442
7	68684	33	4108.1115522442
7	74086	34	4108.1115522442
7	80160	35	4108.1115522442
7	88853	36	4108.1115522442
7	98280	37	4108.1115522442
7	105238	38	4108.1115522442
7	116014	39	4108.1115522442
7	121577	40	4108.1115522442
7	131150	41	4108.1115522442
7	138240	42	4108.1115522442
7	149697	43	4108.1115522442
7	156998	44	4108.1115522442
7	172034	45	4108.1115522442
7	183251	46	4108.1115522442
7	199120	47	4108.1115522442
8	90	3	3116.3918055386
8	213	4	3117.1179593602
8	351	5	3118.4410359052
8	569	6	3120.310883338
8	895	7	3122.7285032201
8	1338	8	3125.6951207806
8	1889	9	3129.3889254141
8	2332	10	3133.2993094773
8	3129	11	3137.1431249108
8	3947	12	3141.0504864529
8	4933	13	3145.0048521512
8	6338	14	3148.8843126163
8	7648	15	3152.5233809903
8	9524	16	3156.3298658743
8	10952	17	3161.8308006877
8	12667	18	3173.4125399761
8	14534	19	3184.5347043992
8	16806	20	3191.9272305715
8	18867	21	3195.451712703
8	22849	22	3195.607121992
8	25453	23	3195.631548556
8	28578	24	3195.638905774
8	32321	25	3195.6394694374
8	35274	26	3195.6394694374
8	39344	27	3195.6394694374
8	42606	28	3195.6394694374
8	47938	29	3195.6394694374
8	52032	30	3195.6395730453
8	57783	31	3195.6395730453
8	62071	32	3195.6395730453
8	68684	33	3195.6395730453
8	74086	34	3195.6395730453
8	80160	35	3195.6395730453
8	88853	36	3195.6395730453
8	98280	37	3195.6395730453
8	105238	38	3195.6395730453
8	116014	39	3195.6395730453
8	121577	40	3195.6395730453
8	131150	41	3195.6395730453
8	138240	42	3195.6395730453
8	149697	43	3195.6395730453
8	156998	44	3195.6395730453
8	172034	45	3195.6395730453
8	183251	46	3195.6395730453
8	199120	47	3195.6395730453
9	90	3	4801.231508283
9	213	4	4800.5780906452
9	351	5	4798.7711075676
9	569	6	4794.6460698881
9	895	7	4787.3891255158
9	1338	8	4779.1746327425
9	1889	9	4773.2587312452
9	2332	10	4773.0415968738
9	3129	11	4771.4853091539
9	3947	12	4768.6155104753
9	4933	13	4765.3957751599
9	6338	14	4762.6578659672
9	7648	15	4759.216101384
9	9524	16	4759.0370972258
9	10952	17	4762.2179636062
9	12667	18	4766.091173934
9	14534	19	4770.5099825032
9	16806	20	4770.9286009266
9	18867	21	4769.5574057513
9	22849	22	4768.0902702734
9	25453	23	4765.2786862498
9	28578	24	4763.5397234362
9	32321	25	4762.4567631406
9	35274	26	4760.5364282266
9	39344	27	4755.358122156
9	42606	28	4746.7490449433
9	47938	29	4736.6112239629
9	52032	30	4726.3303841903
9	57783	31	4715.9800966367
9	62071	32	4705.438462605
9	68684	33	4695.1167649761
9	74086	34	4685.4064868805
9	80160	35	4676.768681119
9	88853	36	4669.6698822954
9	98280	37	4663.0154858058
9	105238	38	4655.6966151939
9	116014	39	4648.204416238
9	121577	40	4641.1901366495
9	131150	41	4636.8051377053
9	138240	42	4632.3594261228
9	149697	43	4630.3228022124
9	156998	44	4630.253633695
9	172034	45	4630.4565461446
9	183251	46	4630.5139567284
9	199120	47	4628.469816053
10	90	3	3853.9755362356
10	213	4	3855.2865158091
10	351	5	3858.911942745
10	569	6	3861.6566502304
10	895	7	3862.2068057964
10	1338	8	3858.173298124
10	1889	9	3848.8067807112
10	2332	10	3837.2712069386
10	3129	11	3825.7020135598
10	3947	12	3814.9027555017
10	4933	13	3804.5418761713
10	6338	14	3797.0946148141
10	7648	15	3792.9658881255
10	9524	16	3787.8717512922
10	10952	17	3780.755741324
10	12667	18	3772.0908682975
10	14534	19	3762.2054213578
10	16806	20	3751.5482078103
10	18867	21	3739.9909913321
10	22849	22	3728.1334021834
10	25453	23	3717.4589951468
10	28578	24	3710.8568816271
10	32321	25	3706.7453349323
10	35274	26	3701.2271469913
10	39344	27	3694.8498685848
10	42606	28	3689.4704745395
10	47938	29	3683.2173883387
10	52032	30	3677.1048372883
10	57783	31	3671.2563261971
10	62071	32	3665.5674727322
10	68684	33	3659.9973092125
10	74086	34	3654.2715152959
10	80160	35	3647.3574751333
10	88853	36	3637.5219580466
10	98280	37	3627.9591068043
10	105238	38	3618.6321649158
10	116014	39	3609.1441593216
10	121577	40	3600.2689484137
10	131150	41	3594.7051391107
10	138240	42	3586.722664537
10	149697	43	3575.8079958011
10	156998	44	3564.7095959479
10	172034	45	3552.6411364471
10	183251	46	3541.0322604607
10	199120	47	3529.9254104898
11	90	3	-0.19634001890663
11	213	4	-0.71835363695864
11	351	5	-1.8257047914134
11	569	6	-4.4479361484293
11	895	7	-4.5
11	1338	8	1.6594952662708
11	1889	9	1.398754352401
11	2332	10	0.47198592942691
11	3129	11	0.84077007367741
11	3947	12	2.2169354937272
11	4933	13	2.3636888966663
11	6338	14	1.91023722135
11	7648	15	-0.17183585401852
11	9524	16	0.84852697364986
11	10952	17	-0.90654725597706
11	12667	18	1.0672538143815
11	14534	19	-0.96059726236854
11	16806	20	0.10180837530643
11	18867	21	0.91026165334042
11	22849	22	-0.78963715692517
11	25453	23	0.10531106083654
11	28578	24	0.69407454645261
11	32321	25	-0.35999161791988
11	35274	26	-0.7330730112968
11	39344	27	0.6100159578491
11	42606	28	-0.399454394239
11	47938	29	0.23226645744871
11	52032	30	-0.2810154575156
11	57783	31	-0.27599057510961
11	62071	32	-0.027863086131402
11	68684	33	1.0150315861916
11	74086	34	-0.45349122043699
11	80160	35	0.067164608859457
11	88853	36	0.54027821926866
11	98280	37	0.081291145388969
11	105238	38	-0.13679301948287
11	116014	39	-1.7215561853511
11	121577	40	-3.5102298455701
11	131150	41	-4.5
11	138240	42	1.9076825732598
11	149697	43	-0.28970873619707
11	156998	44	2.5533435415709
11	172034	45	2.1077147819102
11	183251	46	2.5464746724581
11	199120	47	-3.8504379011216
12	90	3	1.449073369372
12	213	4	0.973
12	351	5	0.973
12	569	6	0.973
12	895	7	0.973
12	1338	8	3.5343836788024
12	1889	9	3.7498511457013
12	2332	10	2.3192868037086
12	3129	11	3.1881129026655
12	3947	12	7.214472918331
12	4933	13	9.126213343845
12	6338	14	8.8116601082678
12	7648	15	1.4846670797951
12	9524	16	5.2938773527775
12	10952	17	0.973
12	12667	18	6.1576557535633
12	14534	19	0.973
12	16806	20	2.4545377272471
12	18867	21	5.5915234196949
12	22849	22	0.973
12	25453	23	2.4969384767132
12	28578	24	4.7883397324147
12	32321	25	0.973
12	35274	26	0.973
12	39344	27	4.3493780737817
12	42606	28	0.973
12	47938	29	2.9565141059118
12	52032	30	1.1109358850409
12	57783	31	1.1177148326079
12	62071	32	1.9683826974372
12	68684	33	5.9067438948832
12	74086	34	0.973
12	80160	35	2.3720131414476
12	88853	36	4.1984647877203
12	98280	37	2.5045205132542
12	105238	38	1.6790978886519
12	116014	39	0.973
12	121577	40	0.973
12	131150	41	0.973
12	138240	42	4.9759951790096
12	149697	43	0.973
12	156998	44	7.6976069245662
12	172034	45	7.8868139340135
12	183251	46	10.954090822367
12	199120	47	0.973
13	90	3	1.529956558696
13	213	4	3.0595701136393
13	351	5	5.6256167356856
13	569	6	8.0354872251628
13	895	7	10.361485390365
13	1338	8	12.414595725434
13	1889	9	13.758327699389
13	2332	10	13.486077842076
13	3129	11	14.364200878603
13	3947	12	9.8642008786027
13	4933	13	5.3642008786027
13	6338	14	7.8055360588415
13	7648	15	7.5602386041279
13	9524	16	8.9941258545001
13	10952	17	10.407010782996
13	12667	18	11.841561606546
13	14534	19	13.918605632052
13	16806	20	10.000927303945
13	18867	21	5.9961389787065
13	22849	22	5.9076099986944
13	25453	23	7.2300455126248
13	28578	24	8.5554025710363
13	32321	25	10.329043618011
13	35274	26	12.144826281354
13	39344	27	14.281575770822
13	42606	28	13.747907600954
13	47938	29	13.775963740825
13	52032	30	13.504013683048
13	57783	31	14.218142706138
13	62071	32	13.94269549824
13	68684	33	13.695695546136
13	74086	34	14.287570349832
13	80160	35	13.512491776148
13	88853	36	14.146684044117
13	98280	37	14.180159238778
13	105238	38	13.462324746471
13	116014	39	13.843982200121
13	121577	40	14.31309537951
13	131150	41	13.633742242918
13	138240	42	10.227556123128
13	149697	43	6.2821383304287
13	156998	44	7.6324297144264
13	172034	45	7.8757260136958
13	183251	46	7.7972301323386
13	199120	47	9.656958188042
14	90	3	1.9318736586953
14	213	4	3.3334121888736
14	351	5	4.9282976239221
14	569	6	6.6714872650569
14	895	7	8.1399312750436
14	1338	8	10.263764152653
14	1889	9	12.853303119191
14	2332	10	14.112993357117
14	3129	11	13.904043290318
14	3947	12	14.045028522397
14	4933	13	12.250070318376
14	6338	14	9.1230061358733
14	7648	15	4.6230061358733
14	9524	16	5.9658673460091
14	10952	17	6.9968818092834
14	12667	18	8.4803257554187
14	14534	19	11.002772291342
14	16806	20	11.236454085949
14	18867	21	6.9158914543938
14	22849	22	9.0863869844719
14	25453	23	10.749130729099
14	28578	24	12.103593490903
14	32321	25	13.305293193432
14	35274	26	13.023768994371
14	39344	27	14.03608489439
14	42606	28	14.290299184384
14	47938	29	13.469313410479
14	52032	30	13.114628625471
14	57783	31	10.342390530725
14	62071	32	9.3869662048622
14	68684	33	7.8417937249817
14	74086	34	7.5576943455437
14	80160	35	9.5235598188998
14	88853	36	11.896913417749
14	98280	37	14.213276092702
14	105238	38	16.114751588454
14	116014	39	17.88307761642
14	121577	40	18.207357704838
14	131150	41	18.166515803257
14	138240	42	18.193223267154
14	149697	43	17.466004389607
14	156998	44	17.435370093108
14	172034	45	18.376350198536
14	183251	46	17.488042179508
14	199120	47	18.392439493945
15	213	4	3654.3657224812
15	351	5	3655.2216192923
15	569	6	3656.7112044713
15	895	7	3658.7532980712
15	1338	8	3661.7519162744
15	1889	9	3665.4182115789
15	2332	10	3669.727068778
15	3129	11	3674.7747639409
15	3947	12	3680.1176338342
15	4933	13	3683.8981732624
15	6338	14	3685.8560163837
15	7648	15	3685.6088054543
15	9524	16	3679.3435055052
15	10952	17	3670.443565725
15	12667	18	3659.5641358649
15	14534	19	3646.5390002015
15	16806	20	3632.4583842961
15	18867	21	3617.7438147797
15	22849	22	3602.9164528444
15	25453	23	3589.2062682183
15	28578	24	3575.4537889343
15	32321	25	3560.9709436678
15	35274	26	3546.9779411112
15	39344	27	3533.2597552496
15	42606	28	3518.5641068335
15	47938	29	3504.7057967407
15	52032	30	3490.6419424542
15	57783	31	3477.6242376113
15	62071	32	3467.4050035472
15	68684	33	3461.3188152935
15	74086	34	3454.291196958
15	80160	35	3455.2266077577
15	88853	36	3459.6909591132
15	98280	37	3464.9672802326
15	105238	38	3471.0339626486
15	116014	39	3477.6936571211
15	121577	40	3485.4180344764
15	131150	41	3493.8619754252
15	138240	42	3502.4802985845
15	149697	43	3511.3888624208
15	156998	44	3521.0018845615
15	172034	45	3529.928351355
15	183251	46	3539.7402721798
15	199120	47	3552.1725070793
16	213	4	1444.792961635
16	351	5	1446.7249801079
16	569	6	1450.0874252598
16	895	7	1454.6970493493
16	1338	8	1461.4658393329
16	1889	9	1469.7417788664
16	2332	10	1479.4681753176
16	3129	11	1490.8623529502
16	3947	12	1502.9228293985
16	4933	13	1511.4566525398
16	6338	14	1515.8760977678
16	7648	15	1522.365245545
16	9524	16	1525.4497922406
16	10952	17	1528.9987635903
16	12667	18	1533.33708338
16	14534	19	1538.5310323771
16	16806	20	1544.1458683951
16	18867	21	1550.0135019889
16	22849	22	1555.9261130852
16	25453	23	1561.559506947
16	28578	24	1567.4324481096
16	32321	25	1573.6708957037
16	35274	26	1579.6983448358
16	39344	27	1585.6074173978
16	42606	28	1591.9375293902
16	47938	29	1597.906960097
16	52032	30	1603.9649284259
16	57783	31	1609.5722706272
16	62071	32	1613.974178884
16	68684	33	1616.5957885035
16	74086	34	1621.7092752691
16	80160	35	1630.2391045054
16	88853	36	1639.7601290179
16	98280	37	1651.0128236901
16	105238	38	1663.9511046166
16	116014	39	1678.1540893885
16	121577	40	1694.6277000628
16	131150	41	1712.7041193367
16	138240	42	1733.1938099285
16	149697	43	1755.3334130919
16	156998	44	1779.2237392215
16	172034	45	1806.0069139965
16	183251	46	1834.0022982558
16	199120	47	1862.2007126442
17	213	4	6655.7244326577
17	351	5	6654.0143718104
17	569	6	6651.0143153142
17	895	7	6646.1039391365
17	1338	8	6639.5519893263
17	1889	9	6631.706371178
17	2332	10	6622.4676371146
17	3129	11	6611.49779312
17	3947	12	6603.487620338
17	4933	13	6597.8979970059
17	6338	14	6592.4533289851
17	7648	15	6586.3439826545
17	9524	16	6581.2688688652
17	10952	17	6575.3141051368
17	12667	18	6568.3198153093
17	14534	19	6560.0912881955
17	16806	20	6550.4256953373
17	18867	21	6539.820809264
17	22849	22	6527.7338747223
17	25453	23	6514.525538809
17	28578	24	6500.5884140369
17	32321	25	6486.4608343503
17	35274	26	6472.9335881765
17	39344	27	6459.4845777711
17	42606	28	6445.4571956353
17	47938	29	6430.3570807811
17	52032	30	6414.7219287733
17	57783	31	6399.2332189126
17	62071	32	6383.5992830978
17	68684	33	6367.7504407971
17	74086	34	6351.787428204
17	80160	35	6336.5084678707
17	88853	36	6322.2595804938
17	98280	37	6311.3847813182
17	105238	38	6303.2720496163
17	116014	39	6298.5305035119
17	121577	40	6292.7406145192
17	131150	41	6286.5678173771
17	138240	42	6281.5069631678
17	149697	43	6274.7195309673
17	156998	44	6266.5807652624
17	172034	45	6257.2819547399
17	183251	46	6246.6285253567
17	199120	47	6235.0284050757
18	213	4	2297.5291637801
18	351	5	2296.0307584802
18	569	6	2293.4020212858
18	895	7	2289.0994061474
18	1338	8	2283.3583962086
18	1889	9	2276.4838362577
18	2332	10	2267.5865898439
18	3129	11	2256.8172479545
18	3947	12	2248.9534816763
18	4933	13	2243.4660230829
18	6338	14	2240.5263778958
18	7648	15	2242.8755421433
18	9524	16	2248.1616245131
18	10952	17	2254.688961677
18	12667	18	2262.3557793725
18	14534	19	2271.3755110164
18	16806	20	2281.9675431014
18	18867	21	2293.5915329329
18	22849	22	2306.844663939
18	25453	23	2321.3273936689
18	28578	24	2336.6092287624
18	32321	25	2352.0998946331
18	35274	26	2366.9323043789
18	39344	27	2381.678929852
18	42606	28	2397.0220094586
18	47938	29	2411.2639965411
18	52032	30	2425.2817190309
18	57783	31	2439.0472531287
18	62071	32	2452.394298354
18	68684	33	2465.7285017929
18	74086	34	2479.1587608221
18	80160	35	2492.0135019793
18	88853	36	2504.6060623792
18	98280	37	2514.2212742314
18	105238	38	2521.3943385569
18	116014	39	2525.5866891066
18	121577	40	2529.4074749062
18	131150	41	2527.9103486443
18	138240	42	2524.0461054319
18	149697	43	2518.7598935299
18	156998	44	2512.4212312985
18	172034	45	2505.179098868
18	183251	46	2496.8819573955
18	199120	47	2487.66328065
19	213	4	1.5296135549434
19	351	5	2.5660466220463
19	569	6	2.4098704894772
19	895	7	2.3259981652023
19	1338	8	2.0531103350688
19	1889	9	1.3437319739549
19	2332	10	-0.272249857313
19	3129	11	0.87812303652695
19	3947	12	-4.5
19	4933	13	-4.5
19	6338	14	2.4413351802388
19	7648	15	-0.24529745471361
19	9524	16	1.4338872503722
19	10952	17	1.4128849284956
19	12667	18	1.4345508235507
19	14534	19	2.0770440255059
19	16806	20	-3.9176783281078
19	18867	21	-4.004788325238
19	22849	22	-0.088528980012052
19	25453	23	1.3224355139304
19	28578	24	1.3253570584115
19	32321	25	1.7736410469748
19	35274	26	1.8157826633425
19	39344	27	2.1367494894682
19	42606	28	-0.53366816986818
19	47938	29	0.028056139871479
19	52032	30	-0.27195005777758
19	57783	31	0.71412902309094
19	62071	32	-0.27544720789883
19	68684	33	-0.24699995210394
19	74086	34	0.59187480369583
19	80160	35	-0.77507857368328
19	88853	36	0.63419226796832
19	98280	37	0.033475194661879
19	105238	38	-0.71783449230716
19	116014	39	0.38165745364968
19	121577	40	0.46911317938939
19	131150	41	-0.67935313659254
19	138240	42	-3.4061861197898
19	149697	43	-3.9454177926993
19	156998	44	1.3502913839977
19	172034	45	0.24329629926942
19	183251	46	-0.07849588135723
19	199120	47	1.8597280557035
20	213	4	2.3881097837276
20	351	5	4.8768049678668
20	569	6	6.2124026457037
20	895	7	7.520893360234
20	1338	8	8.028371464953
20	1889	9	6.4697760003082
20	2332	10	1.1023011772863
20	3129	11	5.1165808501743
20	3947	12	0.973
20	4933	13	0.973
20	6338	14	6.1229501286954
20	7648	15	0.973
20	9524	16	4.7191605938041
20	10952	17	5.259800160577
20	12667	18	5.9285724347529
20	14534	19	8.9977287521173
20	16806	20	0.973
20	18867	21	0.973
20	22849	22	1.2879875779993
20	25453	23	3.797956906035
20	28578	24	4.3132515060445
20	32321	25	6.1251980870515
20	35274	26	7.1759668071883
20	39344	27	9.4224274822007
20	42606	28	0.973
20	47938	29	2.1092110518385
20	52032	30	1.1038705213225
20	57783	31	4.5084204812366
20	62071	32	1.1074284428627
20	68684	33	1.1927317235167
20	74086	34	4.1066687122314
20	80160	35	0.973
20	88853	36	4.2161591069131
20	98280	37	2.171849775993
20	105238	38	0.973
20	116014	39	3.2963025613267
20	121577	40	3.6895267705021
20	131150	41	0.973
20	138240	42	0.973
20	149697	43	0.973
20	156998	44	4.0030088385625
20	172034	45	1.9968413903565
20	183251	46	1.3824261189254
20	199120	47	5.9872411703624
21	213	4	1.4015385301784
21	351	5	1.5948854350485
21	569	6	1.7431896411348
21	895	7	1.4684440099867
21	1338	8	2.1238328776089
21	1889	9	2.5895389665384
21	2332	10	1.2596902379261
21	3129	11	-0.2089500667993
21	3947	12	0.1409852320794
21	4933	13	-1.7949582040213
21	6338	14	-3.1270641825026
21	7648	15	-4.5
21	9524	16	1.3428612101357
21	10952	17	1.0310144632744
21	12667	18	1.4834439461352
21	14534	19	2.5224465359235
21	16806	20	0.23368179460696
21	18867	21	-4.3205626315554
21	22849	22	2.1704955300782
21	25453	23	1.6627437446266
21	28578	24	1.3544627618045
21	32321	25	1.2016997025293
21	35274	26	-0.2815241990611
21	39344	27	1.0123159000184
21	42606	28	0.25421428999398
21	47938	29	-0.82098577390425
21	52032	30	-0.35468478500843
21	57783	31	-2.7722380947464
21	62071	32	-0.95542432586239
21	68684	33	-1.5451724798805
21	74086	34	-0.28409937943798
21	80160	35	1.9658654733561
21	88853	36	2.3733535988489
21	98280	37	2.3163626749534
21	105238	38	1.9014754957519
21	116014	39	1.7683260279661
21	121577	40	0.32428008841816
21	131150	41	-0.040841901581736
21	138240	42	0.026707463897765
21	149697	43	-0.72721887754742
21	156998	44	-0.030634296499194
21	172034	45	0.94098010542803
21	183251	46	-0.88830801902805
21	199120	47	0.90439731443767
22	213	4	2.4001547411577
22	351	5	3.2530756376456
22	569	6	4.2620133502382
22	895	7	4.4331748928246
22	1338	8	6.958450498276
22	1889	9	9.94768142871
22	2332	10	6.3349837681206
22	3129	11	1.3288766503154
22	3947	12	2.5206877193237
22	4933	13	0.973
22	6338	14	0.973
22	7648	15	0.973
22	9524	16	3.3481396480497
22	10952	17	3.2177198178088
22	12667	18	4.6072312500879
22	14534	19	8.4525140820665
22	16806	20	2.4159105362471
22	18867	21	0.973
22	22849	22	6.3706223283899
22	25453	23	6.0506772438446
22	28578	24	5.8085998891556
22	32321	25	5.8227819209777
22	35274	26	0.973
22	39344	27	5.4669109369047
22	42606	28	2.9444539925202
22	47938	29	0.973
22	52032	30	0.973
22	57783	31	0.973
22	62071	32	0.973
22	68684	33	0.973
22	74086	34	0.973
22	80160	35	6.1612216197941
22	88853	36	8.6442344301489
22	98280	37	9.995366000907
22	105238	38	9.6586343853725
22	116014	39	10.122172512602
22	121577	40	3.9688433361542
22	131150	41	2.3613857596201
22	138240	42	2.6610322460333
22	149697	43	0.973
22	156998	44	2.3119872145985
22	172034	45	6.7370525552908
22	183251	46	0.973
22	199120	47	6.5808283577376
23	213	4	2.5865135943983
23	351	5	4.7127142603975
23	569	6	6.6602772863582
23	895	7	8.6114078109851
23	1338	8	10.566902523325
23	1889	9	13.157096493267
23	2332	10	13.928538607243
23	3129	11	13.691425394473
23	3947	12	13.91777258026
23	4933	13	14.08519838587
23	6338	14	13.818390723524
23	7648	15	12.962129428304
23	9524	16	13.558456358496
23	10952	17	13.923732134673
23	12667	18	13.779985474535
23	14534	19	12.939289050446
23	16806	20	8.6003073967774
23	18867	21	4.1003073967774
23	22849	22	0.18079985471144
23	25453	23	0.028417343948497
23	28578	24	0.0085592306834894
23	32321	25	0.00065575394816491
23	35274	26	0
23	39344	27	0
23	42606	28	0
23	47938	29	0
23	52032	30	0.00012053518889462
23	57783	31	0
23	62071	32	0
23	68684	33	0
23	74086	34	0
23	80160	35	0
23	88853	36	0
23	98280	37	0
23	105238	38	0
23	116014	39	0
23	121577	40	0
23	131150	41	0
23	138240	42	0
23	149697	43	0
23	156998	44	0
23	172034	45	0
23	183251	46	0
23	199120	47	0
24	213	4	1.4645417755703
24	351	5	4.0500930060865
24	569	6	5.3909901415929
24	895	7	7.679718698631
24	1338	8	9.1497657984961
24	1889	9	11.258993729576
24	2332	10	11.576146606464
24	3129	11	11.690339570112
24	3947	12	11.184774229691
24	4933	13	10.85336656102
24	6338	14	8.0141410837957
24	7648	15	5.3840903748483
24	9524	16	5.3149307517292
24	10952	17	7.7938899818532
24	12667	18	9.4902996733044
24	14534	19	10.827146984679
24	16806	20	10.993846216161
24	18867	21	11.637241019021
24	22849	22	11.950979488801
24	25453	23	11.03749677144
24	28578	24	6.8266842747555
24	32321	25	4.2514008707591
24	35274	26	5.8540928107677
24	39344	27	8.3401621146584
24	42606	28	10.15806363644
24	47938	29	11.914566310208
24	52032	30	11.961230052324
24	57783	31	11.886820114186
24	62071	32	11.980710591694
24	68684	33	11.730749875672
24	74086	34	11.285314284164
24	80160	35	11.115827196479
24	88853	36	12.134266915863
24	98280	37	11.649992444428
24	105238	38	11.855007931536
24	116014	39	12.088751047981
24	121577	40	11.31168167609
24	131150	41	7.0841035150267
24	138240	42	9.161206758632
24	149697	43	11.188516600248
24	156998	44	11.098097558568
24	172034	45	12.068897422116
24	183251	46	11.620490601232
24	199120	47	11.2934652412
25	351	5	8223.1070658366
25	569	6	8223.9416539466
25	895	7	8226.6991266371
25	1338	8	8231.024511966
25	1889	9	8236.4260377154
25	2332	10	8242.7174321342
25	3129	11	8249.6449350607
25	3947	12	8255.9665064292
25	4933	13	8262.400137764
25	6338	14	8268.9027156288
25	7648	15	8275.7217603082
25	9524	16	8282.325466483
25	10952	17	8289.3903499707
25	12667	18	8296.011362762
25	14534	19	8302.4648822003
25	16806	20	8309.3783025539
25	18867	21	8316.315386701
25	22849	22	8322.7428276405
25	25453	23	8329.111235694
25	28578	24	8334.8705470146
25	32321	25	8338.1633035493
25	35274	26	8341.0770144532
25	39344	27	8344.8233381581
25	42606	28	8348.4445159642
25	47938	29	8353.0577591408
25	52032	30	8358.957649216
25	57783	31	8366.6525494124
25	62071	32	8375.9218092418
25	68684	33	8386.333637092
25	74086	34	8398.7017486801
25	80160	35	8410.5210149177
25	88853	36	8423.0150813112
25	98280	37	8435.4192352786
25	105238	38	8447.5449728234
25	116014	39	8460.0059327072
25	121577	40	8472.1889125875
25	131150	41	8483.1887843162
25	138240	42	8490.8163633301
25	149697	43	8495.8461385842
25	156998	44	8499.2131224203
25	172034	45	8500.674190467
25	183251	46	8498.4985602201
25	199120	47	8493.7348206905
26	351	5	2415.1380053436
26	569	6	2413.0929685208
26	895	7	2409.9459189152
26	1338	8	2405.1318401415
26	1889	9	2399.1200357637
26	2332	10	2392.1178230069
26	3129	11	2384.407632525
26	3947	12	2377.3718333471
26	4933	13	2370.2113133722
26	6338	14	2362.9740571066
26	7648	15	2355.3845787707
26	9524	16	2348.0347684518
26	10952	17	2340.1716757906
26	12667	18	2332.802603508
26	14534	19	2325.6199484192
26	16806	20	2317.9254315965
26	18867	21	2310.2045773825
26	22849	22	2303.0509472102
26	25453	23	2295.963019615
26	28578	24	2289.5530061084
26	32321	25	2285.8882252541
26	35274	26	2283.0062352733
26	39344	27	2282.1026741272
26	42606	28	2284.2237774333
26	47938	29	2288.2511709869
26	52032	30	2293.4018162806
26	57783	31	2300.1195179626
26	62071	32	2308.2116466136
26	68684	33	2317.3012451368
26	74086	34	2328.0986930436
26	80160	35	2338.4169951211
26	88853	36	2349.3423829524
26	98280	37	2360.2608190252
26	105238	38	2370.97415859
26	116014	39	2381.983674015
26	121577	40	2392.7475883655
26	131150	41	2402.4662022283
26	138240	42	2409.2053258264
26	149697	43	2413.649236148
26	156998	44	2416.7962741456
26	172034	45	2420.7051524268
26	183251	46	2424.5480641878
26	199120	47	2429.7297373072
27	351	5	7128.0701865338
27	569	6	7132.6868770621
27	895	7	7130.5623351746
27	1338	8	7128.8894822746
27	1889	9	7127.6853407349
27	2332	10	7123.557110022
27	3129	11	7115.91167502
27	3947	12	7106.1024494141
27	4933	13	7094.7137493259
27	6338	14	7081.0958972548
27	7648	15	7067.549157708
27	9524	16	7053.2640970874
27	10952	17	7039.3418386649
27	12667	18	7025.8079253922
27	14534	19	7012.6641937217
27	16806	20	6999.1367607071
27	18867	21	6988.0931481694
27	22849	22	6977.1991956489
27	25453	23	6966.1641010195
27	28578	24	6954.8609628099
27	32321	25	6943.6015249085
27	35274	26	6931.9717364834
27	39344	27	6920.2500683607
27	42606	28	6908.9060049343
27	47938	29	6897.3472343601
27	52032	30	6889.2228469502
27	57783	31	6883.4830879368
27	62071	32	6878.0346077387
27	68684	33	6872.5527719173
27	74086	34	6867.4734283895
27	80160	35	6861.1465775284
27	88853	36	6853.4805640295
27	98280	37	6844.8906056283
27	105238	38	6835.2176037313
27	116014	39	6824.375508733
27	121577	40	6812.6287487827
27	131150	41	6799.9016901361
27	138240	42	6785.9122897131
27	149697	43	6770.3370618417
27	156998	44	6754.938459597
27	172034	45	6741.165986055
27	183251	46	6730.3261645308
27	199120	47	6722.3045864117
28	351	5	3155.1618330909
28	569	6	3145.7766189698
28	895	7	3131.8479478273
28	1338	8	3120.8805867922
28	1889	9	3112.9861359398
28	2332	10	3106.3015609663
28	3129	11	3105.5127761611
28	3947	12	3106.8267980986
28	4933	13	3108.8688916194
28	6338	14	3111.3106915848
28	7648	15	3113.7397404527
28	9524	16	3116.7236561622
28	10952	17	3120.1596482588
28	12667	18	3124.0219064875
28	14534	19	3128.5482246786
28	16806	20	3133.206678432
28	18867	21	3141.0276130863
28	22849	22	3148.7759773993
28	25453	23	3156.6212869181
28	28578	24	3164.6571598096
28	32321	25	3172.6620111497
28	35274	26	3180.9315911209
28	39344	27	3189.2665038805
28	42606	28	3197.3329137131
28	47938	29	3205.5519951046
28	52032	30	3211.3289937005
28	57783	31	3215.4103573884
28	62071	32	3218.4321876283
28	68684	33	3215.1741490887
28	74086	34	3208.0277869413
28	80160	35	3199.1262493198
28	88853	36	3188.3405821585
28	98280	37	3176.1990615511
28	105238	38	3162.1673596646
28	116014	39	3146.206489657
28	121577	40	3128.8717487899
28	131150	41	3109.5225529916
28	138240	42	3088.0111060341
28	149697	43	3064.7747319073
28	156998	44	3043.4469949509
28	172034	45	3025.2317880082
28	183251	46	3010.4478715321
28	199120	47	2999.1816101288
29	351	5	6584.8045406949
29	569	6	6583.9977886515
29	895	7	6582.3393895948
29	1338	8	6579.4632411206
29	1889	9	6575.4130755164
29	2332	10	6569.9948852604
29	3129	11	6566.8049240887
29	3947	12	6562.6860579914
29	4933	13	6557.6686866739
29	6338	14	6551.563831392
29	7648	15	6544.0158621171
29	9524	16	6536.9082983747
29	10952	17	6531.7510996146
29	12667	18	6529.1828521652
29	14534	19	6525.3028227234
29	16806	20	6520.4066618203
29	18867	21	6514.5238942558
29	22849	22	6507.6650056769
29	25453	23	6500.6672292609
29	28578	24	6496.1406824028
29	32321	25	6494.0853651025
29	35274	26	6491.3285268263
29	39344	27	6487.3433988224
29	42606	28	6482.5362168043
29	47938	29	6476.7461342098
29	52032	30	6471.4736169751
29	57783	31	6467.9798141685
29	62071	32	6465.7786654326
29	68684	33	6465.3478604303
29	74086	34	6465.3147479919
29	80160	35	6465.3009375459
29	88853	36	6465.2952147874
29	98280	37	6465.2910255471
29	105238	38	6465.2902735448
29	116014	39	6464.015059897
29	121577	40	6461.8244362931
29	131150	41	6459.1090152464
29	138240	42	6456.1758227192
29	149697	43	6454.0059091765
29	156998	44	6452.0590933044
29	172034	45	6450.3809706996
29	183251	46	6448.1228303704
29	199120	47	6444.8789378332
30	351	5	3335.4165349833
30	569	6	3334.1788121316
30	895	7	3331.63448835
30	1338	8	3327.2218875755
30	1889	9	3321.0081040929
30	2332	10	3312.6954906327
30	3129	11	3307.8014369134
30	3947	12	3301.5957233018
30	4933	13	3294.1894199861
30	6338	14	3285.4449009772
30	7648	15	3274.713954424
30	9524	16	3264.6091323367
30	10952	17	3257.277143792
30	12667	18	3253.6258668577
30	14534	19	3247.9338585646
30	16806	20	3240.7136298802
30	18867	21	3231.761874384
30	22849	22	3221.3247641532
30	25453	23	3210.6763095261
30	28578	24	3203.7883031122
30	32321	25	3200.6607449115
30	35274	26	3196.1566226819
30	39344	27	3189.5252853421
30	42606	28	3180.9876433736
30	47938	29	3170.43698398
30	52032	30	3160.8294295831
30	57783	31	3155.2731710901
30	62071	32	3152.4779069874
30	68684	33	3151.9308227589
30	74086	34	3151.8887728923
30	80160	35	3151.8712348481
30	88853	36	3151.8639674512
30	98280	37	3151.8586474867
30	105238	38	3151.8576925104
30	116014	39	3150.1166396082
30	121577	40	3146.8137869906
30	131150	41	3141.8265549525
30	138240	42	3134.8053230712
30	149697	43	3125.1063228159
30	156998	44	3113.1341712426
30	172034	45	3099.3778146904
30	183251	46	3084.294422168
30	199120	47	3066.7674340614
31	351	5	2.1262006659992
31	569	6	1.9475630259607
31	895	7	1.9511305246269
31	1338	8	1.9554947123397
31	1889	9	2.5901939699426
31	2332	10	0.771442113976
31	3129	11	-0.23711321277078
31	3947	12	0.22634718578774
31	4933	13	0.16742580560967
31	6338	14	-0.2668076623464
31	7648	15	-0.85626129521988
31	9524	16	0.5963269301923
31	10952	17	0.36527577617671
31	12667	18	-0.14374666013755
31	14534	19	-0.84069642408942
31	16806	20	-4.3389816536685
31	18867	21	-4.5
31	22849	22	-3.919507542066
31	25453	23	-0.15238251076295
31	28578	24	-0.019858113265008
31	32321	25	-0.0079034767353245
31	35274	26	-0.00065575394816491
31	39344	27	0
31	42606	28	0
31	47938	29	0
31	52032	30	0.00012053518889462
31	57783	31	-0.00012053518889462
31	62071	32	0
31	68684	33	0
31	74086	34	0
31	80160	35	0
31	88853	36	0
31	98280	37	0
31	105238	38	0
31	116014	39	0
31	121577	40	0
31	131150	41	0
31	138240	42	0
31	149697	43	0
31	156998	44	0
31	172034	45	0
31	183251	46	0
31	199120	47	0
32	351	5	3.7618728991628
32	569	6	4.584670330842
32	895	7	5.6336839244473
32	1338	8	6.7086534962574
32	1889	9	10.168244903929
32	2332	10	4.6210981988493
32	3129	11	1.2251806306796
32	3947	12	2.7896506109249
32	4933	13	2.6159461004113
32	6338	14	1.1318179754619
32	7648	15	0.973
32	9524	16	3.9428626581413
32	10952	17	3.2567747321624
32	12667	18	1.5390907736508
32	14534	19	0.973
32	16806	20	0.973
32	18867	21	0.973
32	22849	22	0.973
32	25453	23	0.973
32	28578	24	1.1103719345346
32	32321	25	1.1100303845311
32	35274	26	0.973
32	39344	27	0.973
32	42606	28	0.973
32	47938	29	0.973
32	52032	30	1.1100058181189
32	57783	31	0.973
32	62071	32	0.973
32	68684	33	0.973
32	74086	34	0.973
32	80160	35	0.973
32	88853	36	0.973
32	98280	37	0.973
32	105238	38	0.973
32	116014	39	0.973
32	121577	40	0.973
32	131150	41	0.973
32	138240	42	0.973
32	149697	43	0.973
32	156998	44	0.973
32	172034	45	0.973
32	183251	46	0.973
32	199120	47	0.973
33	351	5	2.5855512305163
33	569	6	1.3408971355064
33	895	7	2.2887285570381
33	1338	8	1.470047099865
33	1889	9	2.1092279310804
33	2332	10	0.31715287688786
33	3129	11	0.11419296364766
33	3947	12	-0.50556534042116
33	4933	13	-0.33140766867049
33	6338	14	-2.8392254772247
33	7648	15	-2.6300507089474
33	9524	16	-0.069159623119049
33	10952	17	2.478959230124
33	12667	18	1.6964096914511
33	14534	19	1.3368473113747
33	16806	20	0.1666992314821
33	18867	21	0.64339480285998
33	22849	22	0.31373846977949
33	25453	23	-0.91348271736024
33	28578	24	-4.210812496685
33	32321	25	-2.5752834039964
33	35274	26	1.6026919400087
33	39344	27	2.4860693038907
33	42606	28	1.8179015217815
33	47938	29	1.7565026737679
33	52032	30	0.046663742116653
33	57783	31	-0.074409938137979
33	62071	32	0.093890477507376
33	68684	33	-0.24996071602218
33	74086	34	-0.4454355915077
33	80160	35	-0.16948708768468
33	88853	36	1.0184397193836
33	98280	37	-0.48427447143477
33	105238	38	0.20501548710745
33	116014	39	0.23374311644584
33	121577	40	-0.77706937189148
33	131150	41	-4.2275781610631
33	138240	42	2.0771032436052
33	149697	43	2.0273098416161
33	156998	44	-0.09041904168037
33	172034	45	0.97079986354802
33	183251	46	-0.44840682088397
33	199120	47	-0.32702536003199
34	351	5	3.8351988822478
34	569	6	3.1266669628555
34	895	7	5.7583180138575
34	1338	8	4.8637385028677
34	1889	9	7.5081971694071
34	2332	10	2.6965488115895
34	3129	11	2.1432550482151
34	3947	12	0.973
34	4933	13	0.973
34	6338	14	0.973
34	7648	15	0.973
34	9524	16	1.2916754657171
34	10952	17	6.1860101523808
34	12667	18	5.5267371836954
34	14534	19	5.2378444970893
34	16806	20	2.2047656254331
34	18867	21	3.6214166023599
34	22849	22	2.7478228072998
34	25453	23	0.973
34	28578	24	0.973
34	32321	25	0.973
34	35274	26	3.6720707584229
34	39344	27	6.5628682186069
34	42606	28	6.147246598948
34	47938	29	6.8846443263167
34	52032	30	1.9796137541114
34	57783	31	1.6254127177943
34	62071	32	2.1179064127065
34	68684	33	0.973
34	74086	34	0.973
34	80160	35	1.3190675384114
34	88853	36	4.8386888718249
34	98280	37	0.973
34	105238	38	2.4215405374908
34	116014	39	2.5373447879612
34	121577	40	0.973
34	131150	41	0.973
34	138240	42	6.2088989218734
34	149697	43	7.2456250617883
34	156998	44	1.5298089742975
34	172034	45	4.6782723057398
34	183251	46	0.973
34	199120	47	0.973
35	351	5	2.1130978513975
35	569	6	3.6775919719366
35	895	7	5.0416633669054
35	1338	8	7.4031981429318
35	1889	9	9.0516060231021
35	2332	10	10.638007726427
35	3129	11	12.462102516554
35	3947	12	13.190850515421
35	4933	13	9.3336598984484
35	6338	14	4.8336598984484
35	7648	15	6.9979728052879
35	9524	16	7.0406586745076
35	10952	17	9.5813761394725
35	12667	18	11.712428650961
35	14534	19	14.022423425528
35	16806	20	15.158717991122
35	18867	21	15.841211148621
35	22849	22	15.962639677095
35	25453	23	14.830747882267
35	28578	24	14.956516532683
35	32321	25	15.768710701344
35	35274	26	15.235377102871
35	39344	27	14.93616069347
35	42606	28	16.000407666982
35	47938	29	15.088725912794
35	52032	30	15.31251943299
35	57783	31	14.173487176514
35	62071	32	11.126553006696
35	68684	33	6.6265530066963
35	74086	34	8.896884813018
35	80160	35	8.9441524785923
35	88853	36	10.514909935135
35	98280	37	12.427346537144
35	105238	38	14.288888604262
35	116014	39	15.685612981066
35	121577	40	18.193266104742
35	131150	41	19.950642665217
35	138240	42	22.233811332353
35	149697	43	23.866172158507
35	156998	44	25.753426207623
35	172034	45	28.238438275664
35	183251	46	29.673391611337
35	199120	47	30.894136996244
36	351	5	2.2737992957234
36	569	6	3.9890547512332
36	895	7	6.5291301838355
36	1338	8	8.7118647777243
36	1889	9	10.432003660942
36	2332	10	12.830036515137
36	3129	11	15.373526183865
36	3947	12	11.225738584927
36	4933	13	7.8334952344864
36	6338	14	6.3048102896914
36	7648	15	6.8634938572088
36	9524	16	7.3385490425417
36	10952	17	8.8350860415513
36	12667	18	10.377431455466
36	14534	19	12.208669959197
36	16806	20	14.338669978736
36	18867	21	15.734034309096
36	22849	22	17.936339722064
36	25453	23	19.600437090571
36	28578	24	20.681919290406
36	32321	25	20.964543808462
36	35274	26	20.073682209501
36	39344	27	19.957584673237
36	42606	28	20.789372064128
36	47938	29	20.77171608063
36	52032	30	20.999152073591
36	57783	31	20.722140392918
36	62071	32	20.557859394794
36	68684	33	20.712227827126
36	74086	34	20.861432485749
36	80160	35	19.967471527589
36	88853	36	19.016138276926
36	98280	37	14.516138276926
36	105238	38	10.829214708882
36	116014	39	6.329214708882
36	121577	40	7.0391491221923
36	131150	41	6.602004142381
36	138240	42	6.371823872715
36	149697	43	8.6048669872999
36	156998	44	10.318039910189
36	172034	45	11.788703787113
36	183251	46	13.506041768585
36	199120	47	14.812699225215
37	569	6	2747.8931846866
37	895	7	2749.3943755104
37	1338	8	2752.9741266386
37	1889	9	2758.9721075508
37	2332	10	2766.8093867089
37	3129	11	2776.3160637658
37	3947	12	2787.3514424483
37	4933	13	2800.2213335123
37	6338	14	2814.2013396658
37	7648	15	2828.6193889724
37	9524	16	2843.0701014091
37	10952	17	2856.8335950296
37	12667	18	2871.3196808286
37	14534	19	2885.9044520273
37	16806	20	2899.7597888627
37	18867	21	2913.2876444289
37	22849	22	2927.9755245601
37	25453	23	2942.0424361559
37	28578	24	2953.3042040925
37	32321	25	2960.9075881161
37	35274	26	2965.5289087515
37	39344	27	2972.0692260255
37	42606	28	2979.3510789055
37	47938	29	2986.8950343624
37	52032	30	2995.7793066455
37	57783	31	3006.5232988194
37	62071	32	3019.5114960393
37	68684	33	3031.9761957631
37	74086	34	3046.2993459865
37	80160	35	3060.7408900112
37	88853	36	3075.1173072821
37	98280	37	3090.439457144
37	105238	38	3105.1667112451
37	116014	39	3118.4835638396
37	121577	40	3127.392155465
37	131150	41	3133.1081872072
37	138240	42	3140.7369172506
37	149697	43	3149.4975660847
37	156998	44	3160.3359153778
37	172034	45	3173.4703150817
37	183251	46	3187.6333677647
37	199120	47	3201.3137741424
38	569	6	1120.1121960454
38	895	7	1120.6578392634
38	1338	8	1121.9589842572
38	1889	9	1124.1390919119
38	2332	10	1126.9877359031
38	3129	11	1130.4431619417
38	3947	12	1134.4542306482
38	4933	13	1139.1320961558
38	6338	14	1144.2134591802
38	7648	15	1149.4540393221
38	9524	16	1154.7064916491
38	10952	17	1159.709158086
38	12667	18	1164.974467696
38	14534	19	1170.2756468425
38	16806	20	1175.3116958624
38	18867	21	1180.2287140896
38	22849	22	1185.56737061
38	25453	23	1190.6803214676
38	28578	24	1194.773676689
38	32321	25	1197.537305976
38	35274	26	1199.2170339777
38	39344	27	1200.5041244762
38	42606	28	1197.5263257381
38	47938	29	1190.0588971901
38	52032	30	1181.2504064568
38	57783	31	1171.5849914144
38	62071	32	1163.3186417943
38	68684	33	1156.0420180896
38	74086	34	1151.8369199131
38	80160	35	1148.0437778573
38	88853	36	1147.8097578665
38	98280	37	1147.5603431965
38	105238	38	1147.4481717126
38	116014	39	1150.176877439
38	121577	40	1152.00230314
38	131150	41	1153.1733873142
38	138240	42	1154.9034546114
38	149697	43	1157.5459140675
38	156998	44	1161.2910051148
38	172034	45	1165.8297304564
38	183251	46	1170.7239172923
38	199120	47	1175.4513207908
39	569	6	4027.8296779619
39	895	7	4029.4074960314
39	1338	8	4033.245269966
39	1889	9	4038.8541681872
39	2332	10	4046.1701219508
39	3129	11	4055.7577127402
39	3947	12	4066.7499064406
39	4933	13	4078.8671608058
39	6338	14	4091.7020375518
39	7648	15	4102.2824385788
39	9524	16	4108.3719886404
39	10952	17	4113.2599545002
39	12667	18	4116.3679893638
39	14534	19	4116.3245102843
39	16806	20	4115.8322308135
39	18867	21	4115.2412379381
39	22849	22	4114.5095905663
39	25453	23	4113.7353092261
39	28578	24	4112.9081089332
39	32321	25	4112.0797139926
39	35274	26	4111.3277741291
39	39344	27	4110.5145312645
39	42606	28	4109.7417158182
39	47938	29	4108.9244356812
39	52032	30	4108.1638298279
39	57783	31	4107.3589882681
39	62071	32	4106.5431769583
39	68684	33	4105.7843153573
39	74086	34	4105.0175701346
39	80160	35	4104.2281691011
39	88853	36	4103.4774963892
39	98280	37	4102.6705113607
39	105238	38	4101.8881993738
39	116014	39	4101.0990899783
39	121577	40	4100.302519198
39	131150	41	4099.4945992679
39	138240	42	4098.9256900939
39	149697	43	4098.5478716575
39	156998	44	4097.1186296917
39	172034	45	4091.8879094983
39	183251	46	4084.7321872677
39	199120	47	4075.8139678559
40	569	6	1840.0386192487
40	895	7	1840.1373923365
40	1338	8	1840.3776410628
40	1889	9	1840.7287640515
40	2332	10	1841.186750531
40	3129	11	1841.7869439022
40	3947	12	1842.4751730953
40	4933	13	1843.2355134045
40	6338	14	1844.0408834876
40	7648	15	1844.704788457
40	9524	16	1845.0868989779
40	10952	17	1845.6753404321
40	12667	18	1849.2172691743
40	14534	19	1854.452927102
40	16806	20	1862.2218143797
40	18867	21	1871.5485430032
40	22849	22	1883.0950045063
40	25453	23	1895.3142921466
40	28578	24	1908.3687179611
40	32321	25	1921.4419970569
40	35274	26	1933.3087036452
40	39344	27	1946.1428609055
40	42606	28	1958.3390146041
40	47938	29	1971.236885905
40	52032	30	1983.2403544386
40	57783	31	1995.9419268681
40	62071	32	2008.8166179363
40	68684	33	2020.792559626
40	74086	34	2032.8929163527
40	80160	35	2045.3508147822
40	88853	36	2057.1975238717
40	98280	37	2069.9329233604
40	105238	38	2082.2789463063
40	116014	39	2094.7322422631
40	121577	40	2107.303289743
40	131150	41	2120.0534433414
40	138240	42	2129.0316589825
40	149697	43	2134.9941843727
40	156998	44	2140.7431717728
40	172034	45	2142.4183208053
40	183251	46	2142.0810336136
40	199120	47	2141.6606705694
41	569	6	1.5644941205392
41	895	7	1.3640713949688
41	1338	8	2.3615347760264
41	1889	9	1.6484078801703
41	2332	10	1.5864017033251
41	3129	11	1.8240947901271
41	3947	12	0.72874799886625
41	4933	13	-3.8571906169721
41	6338	14	-4.5
41	7648	15	2.1643129068395
41	9524	16	0.042685869219713
41	10952	17	2.5407174649648
41	12667	18	2.1310525114881
41	14534	19	2.3099947745679
41	16806	20	1.1362945655937
41	18867	21	0.68249315749854
41	22849	22	0.12142852847464
41	25453	23	-1.1318917948287
41	28578	24	0.12576865041629
41	32321	25	0.81219416866079
41	35274	26	-0.53333359847311
41	39344	27	-0.2992164094001
41	42606	28	1.0642469735118
41	47938	29	-0.91168175418861
41	52032	30	0.22379352019634
41	57783	31	-1.1390322564756
41	62071	32	-3.046934169818
41	68684	33	-4.5
41	74086	34	2.2703318063217
41	80160	35	0.047267665574328
41	88853	36	1.5707574565429
41	98280	37	1.9124366020085
41	105238	38	1.861542067118
41	116014	39	1.3967243768042
41	121577	40	2.5076531236758
41	131150	41	1.7573765604757
41	138240	42	2.2831686671358
41	149697	43	1.6323608261533
[...]
1262	3099500	119	11.58165237362
1262	3176113	120	11.393676294233
1262	3257512	121	11.48391799476
1262	3332722	122	10.722983328705
1262	3408506	123	10.682057820596
1262	3494754	124	11.707863683007
1262	3561916	125	10.910794397639
1263	2848207	116	3682.8132824736
1263	2936759	117	3684.1641002321
1263	3003023	118	3686.5574333916
1263	3099500	119	3690.7180592556
1263	3176113	120	3695.8833305192
1263	3257512	121	3702.3890727929
1263	3332722	122	3710.3543588455
1263	3408506	123	3719.7292113544
1263	3494754	124	3730.5200694669
1263	3561916	125	3740.9726470494
1264	2848207	116	1049.461850149
1264	2936759	117	1048.16072624
1264	3003023	118	1045.8554389602
1264	3099500	119	1041.8478740952
1264	3176113	120	1036.8726227
1264	3257512	121	1030.6062135085
1264	3332722	122	1022.9339541975
1264	3408506	123	1013.9039835253
1264	3494754	124	1003.5291516011
1264	3561916	125	993.70394407952
1265	2848207	116	5171.9092891319
1265	2936759	117	5171.0509591547
1265	3003023	118	5169.3310818136
1265	3099500	119	5166.7505969381
1265	3176113	120	5163.341024234
1265	3257512	121	5159.1570514947
1265	3332722	122	5153.851869508
1265	3408506	123	5147.8954397894
1265	3494754	124	5143.9131269828
1265	3561916	125	5141.4401733188
1266	2848207	116	4169.4493711552
1266	2936759	117	4167.8057174126
1266	3003023	118	4164.5122488125
1266	3099500	119	4159.5707650758
1266	3176113	120	4153.0416246702
1266	3257512	121	4145.0295516515
1266	3332722	122	4134.8704258387
1266	3408506	123	4123.4641971631
1266	3494754	124	4115.8382915996
1266	3561916	125	4111.1027240989
1267	2848207	116	1.9883531874511
1267	2936759	117	2.131080448837
1267	3003023	118	2.5144660409074
1267	3099500	119	1.8986118515022
1267	3176113	120	2.4352407586528
1267	3257512	121	-0.97871542092981
1267	3332722	122	-1.6281938984818
1267	3408506	123	-3.1619728629012
1267	3494754	124	0.53117711422891
1267	3561916	125	-0.039304393040948
1268	2848207	116	3.0968034162551
1268	2936759	117	4.4373242946357
1268	3003023	118	6.6623991934887
1268	3099500	119	6.4217018325317
1268	3176113	120	9.3905996982686
1268	3257512	121	0.973
1268	3332722	122	0.973
1268	3408506	123	0.973
1268	3494754	124	2.4707465841477
1268	3561916	125	1.4375601344973
1269	2848207	116	1.785667009349
1269	2936759	117	1.3813424714142
1269	3003023	118	1.9794784066966
1269	3099500	119	2.1521205251804
1269	3176113	120	1.3760900264373
1269	3257512	121	2.3631434630603
1269	3332722	122	1.0357944857222
1269	3408506	123	-0.52274297021795
1269	3494754	124	1.0261910082772
1269	3561916	125	-1.5877608949524
1270	2848207	116	2.9676486814183
1270	2936759	117	3.1250279041748
1270	3003023	118	4.943421179782
1270	3099500	119	6.5057159162644
1270	3176113	120	5.3123104961029
1270	3257512	121	9.4252863779836
1270	3332722	122	5.5894725384444
1270	3408506	123	0.973
1270	3494754	124	5.7344740648775
1270	3561916	125	0.973
1271	2848207	116	0.44101557722315
1271	2936759	117	0.3875782947056
1271	3003023	118	-0.32739070488606
1271	3099500	119	0.19969096558634
1271	3176113	120	-0.18797607938759
1271	3257512	121	0.090241700527258
1271	3332722	122	-0.76093466605525
1271	3408506	123	-0.040925508108922
1271	3494754	124	1.0258058624109
1271	3561916	125	-0.79706928536762
1272	2848207	116	2.9935595325171
1272	2936759	117	2.916897502526
1272	3003023	118	0.973
1272	3099500	119	2.3695826800787
1272	3176113	120	1.2801076847649
1272	3257512	121	2.0536474478911
1272	3332722	122	0.973
1272	3408506	123	1.6325445863258
1272	3494754	124	4.7174499299051
1272	3561916	125	0.973
1273	2848207	116	2.2507764678914
1273	2936759	117	3.9939543017885
1273	3003023	118	6.0983592178357
1273	3099500	119	5.7309437428052
1273	3176113	120	5.4247838824671
1273	3257512	121	6.3768036713508
1273	3332722	122	5.8868904240812
1273	3408506	123	5.9427249248522
1273	3494754	124	5.879762602985
1273	3561916	125	5.6896468286785
1274	2848207	116	1.7447174082277
1274	2936759	117	3.5616244805511
1274	3003023	118	5.1740114340093
1274	3099500	119	6.5813141033519
1274	3176113	120	8.400857162918
1274	3257512	121	9.7603290562751
1274	3332722	122	11.727172528137
1274	3408506	123	13.461275266677
1274	3494754	124	12.908284656501
1274	3561916	125	13.521871380142
1275	2936759	117	8083.6119788093
1275	3003023	118	8085.3690984576
1275	3099500	119	8088.6465947577
1275	3176113	120	8093.9293893143
1275	3257512	121	8100.6140353743
1275	3332722	122	8108.9952975237
1275	3408506	123	8119.0662683088
1275	3494754	124	8129.4968254335
1275	3561916	125	8139.5275937098
1276	2936759	117	3808.4693877782
1276	3003023	118	3809.5157202081
1276	3099500	119	3811.4674089681
1276	3176113	120	3814.6132159541
1276	3257512	121	3818.5937997245
1276	3332722	122	3823.5846871684
1276	3408506	123	3829.5817650241
1276	3494754	124	3835.7929699307
1276	3561916	125	3841.7661079319
1277	2936759	117	3116.2205694859
1277	3003023	118	3108.1631177951
1277	3099500	119	3100.3443526515
1277	3176113	120	3091.4447640501
1277	3257512	121	3082.5152855318
1277	3332722	122	3073.8446904751
1277	3408506	123	3065.2813797461
1277	3494754	124	3060.0703567497
1277	3561916	125	3056.60270433
1278	2936759	117	5198.2657393041
1278	3003023	118	5189.3981086289
1278	3099500	119	5180.7931644989
1278	3176113	120	5172.2491184494
1278	3257512	121	5163.7808882162
1278	3332722	122	5155.6130225063
1278	3408506	123	5147.9457538036
1278	3494754	124	5143.279998374
1278	3561916	125	5139.7494613919
1279	2936759	117	1.7431778338971
1279	3003023	118	2.1044049160472
1279	3099500	119	-0.36741547503043
1279	3176113	120	-0.30615986033808
1279	3257512	121	0.95201978888363
1279	3332722	122	-0.48991324726958
1279	3408506	123	0.055834500771017
1279	3494754	124	-0.062962321867236
1279	3561916	125	-0.19011577430647
1280	2936759	117	2.9864374352265
1280	3003023	118	4.5179897090157
1280	3099500	119	0.973
1280	3176113	120	0.973
1280	3257512	121	2.9046444495917
1280	3332722	122	0.973
1280	3408506	123	1.4960308852165
1280	3494754	124	1.323198821303
1280	3561916	125	0.973
1281	2936759	117	1.8169070723234
1281	3003023	118	1.6123869534582
1281	3099500	119	1.4073026693426
1281	3176113	120	1.8195430595661
1281	3257512	121	1.3594718933571
1281	3332722	122	1.9668434718624
1281	3408506	123	1.734102738539
1281	3494754	124	-0.55299061017577
1281	3561916	125	0.61358672364149
1282	2936759	117	2.8455313355747
1282	3003023	118	3.3829342968996
1282	3099500	119	3.6859343295997
1282	3176113	120	5.253886288749
1282	3257512	121	4.8645361334287
1282	3332722	122	7.3834958324264
1282	3408506	123	7.6104277634826
1282	3494754	124	0.973
1282	3561916	125	3.9902268585226
1283	2936759	117	1.875480749947
1283	3003023	118	3.322913280176
1283	3099500	119	5.7766295019537
1283	3176113	120	7.1714831717778
1283	3257512	121	9.0325984548777
1283	3332722	122	11.059034844209
1283	3408506	123	13.016082519921
1283	3494754	124	14.968937074717
1283	3561916	125	14.34500423183
1284	2936759	117	1.8543070831336
1284	3003023	118	3.7155648996821
1284	3099500	119	5.5747923401883
1284	3176113	120	7.3659256735351
1284	3257512	121	9.03891334543
1284	3332722	122	11.461135922396
1284	3408506	123	12.868069519068
1284	3494754	124	8.6032540402804
1284	3561916	125	5.3424855439887
1285	3003023	118	4394.9079309611
1285	3099500	119	4394.7526217822
1285	3176113	120	4394.3256045637
1285	3257512	121	4394.3177332193
1285	3332722	122	4395.1801064368
1285	3408506	123	4396.646010455
1285	3494754	124	4401.6848823135
1285	3561916	125	4404.284007251
1286	3003023	118	3721.2955369077
1286	3099500	119	3719.9891126388
1286	3176113	120	3716.3971442713
1286	3257512	121	3710.3806345397
1286	3332722	122	3702.4411327578
1286	3408506	123	3692.8111283876
1286	3494754	124	3682.7629902632
1286	3561916	125	3670.9007845514
1287	3003023	118	6798.1248543071
1287	3099500	119	6799.2289567531
1287	3176113	120	6802.31502236
1287	3257512	121	6806.6796762173
1287	3332722	122	6812.1992537417
1287	3408506	123	6819.375666553
1287	3494754	124	6827.8990937699
1287	3561916	125	6837.1633928224
1288	3003023	118	2418.2572294388
1288	3099500	119	2417.3753641331
1288	3176113	120	2414.9104713147
1288	3257512	121	2411.4148873712
1288	3332722	122	2406.2568260356
1288	3408506	123	2399.5504472797
1288	3494754	124	2391.1416368643
1288	3561916	125	2381.5029938341
1289	3003023	118	6150.9312067669
1289	3099500	119	6142.0817314983
1289	3176113	120	6133.2913833942
1289	3257512	121	6128.0170261988
1289	3332722	122	6122.1899059544
1289	3408506	123	6115.156518206
1289	3494754	124	6105.5638195859
1289	3561916	125	6095.1393589117
1290	3003023	118	5734.8612111295
1290	3099500	119	5740.4209943623
1290	3176113	120	5746.0973001354
1290	3257512	121	5737.1441042025
1290	3332722	122	5727.2525956568
1290	3408506	123	5718.5327331446
1290	3494754	124	5716.0128698427
1290	3561916	125	5719.3764027452
1291	3003023	118	1.447432530229
1291	3099500	119	2.4537162217777
1291	3176113	120	1.3948536698241
1291	3257512	121	1.8611152830999
1291	3332722	122	2.0264363893308
1291	3408506	123	1.957047675713
1291	3494754	124	1.9528545547954
1291	3561916	125	-0.62393284288701
1292	3003023	118	2.4328227496283
1292	3099500	119	4.8224563250775
1292	3176113	120	3.9007883848839
1292	3257512	121	5.6651915733715
1292	3332722	122	7.169348204513
1292	3408506	123	8.080622058982
1292	3494754	124	9.1868971252383
1292	3561916	125	0.973
1293	3003023	118	1.8612578165485
1293	3099500	119	1.8592274405062
1293	3176113	120	1.7911333333468
1293	3257512	121	1.672987671895
1293	3332722	122	2.4222225769656
1293	3408506	123	1.4069335966723
1293	3494754	124	-4.2648154787874
1293	3561916	125	-3.2607684962917
1294	3003023	118	2.9606428553722
1294	3099500	119	3.8928515581165
1294	3176113	120	4.681850215322
1294	3257512	121	5.2586584282583
1294	3332722	122	8.4924650621536
1294	3408506	123	6.2907846200299
1294	3494754	124	0.973
1294	3561916	125	0.973
1295	3003023	118	2.0450373214204
1295	3099500	119	3.8145394713385
1295	3176113	120	6.1484213893302
1295	3257512	121	7.7799771267688
1295	3332722	122	9.7545969121857
1295	3408506	123	11.721177404001
1295	3494754	124	12.139684752301
1295	3561916	125	11.674387402526
1296	3003023	118	11.982456986382
1296	3099500	119	11.62749968782
1296	3176113	120	12.340593274062
1296	3257512	121	12.307298072506
1296	3332722	122	11.913306389781
1296	3408506	123	11.495104643166
1296	3494754	124	6.9951046431659
1296	3561916	125	4.9600520879122
1297	3099500	119	2609.3026643869
1297	3176113	120	2609.8978772446
1297	3257512	121	2610.9716131166
1297	3332722	122	2612.4887733733
1297	3408506	123	2614.3910508116
1297	3494754	124	2616.5583427765
1297	3561916	125	2618.8417208455
1298	3099500	119	1422.7245383495
1298	3176113	120	1425.1535726653
1298	3257512	121	1429.5354358011
1298	3332722	122	1435.7268919812
1298	3408506	123	1443.4899923847
1298	3494754	124	1452.3346040004
1298	3561916	125	1461.6529572816
1299	3099500	119	4188.877020757
1299	3176113	120	4195.1698063609
1299	3257512	121	4201.7470289184
1299	3332722	122	4207.9444805719
1299	3408506	123	4214.098499677
1299	3494754	124	4220.5587502428
1299	3561916	125	4226.8960773562
1300	3099500	119	5686.0138217338
1300	3176113	120	5671.7391678109
1300	3257512	121	5656.8192926251
1300	3332722	122	5642.7608957359
1300	3408506	123	5628.8010219234
1300	3494754	124	5614.1464878447
1300	3561916	125	5599.7778378578
1301	3099500	119	1.7695021499181
1301	3176113	120	2.3338819179917
1301	3257512	121	1.6315557374386
1301	3332722	122	1.9746197854169
1301	3408506	123	1.9665804918157
1301	3494754	124	0.41850734829973
1301	3561916	125	-0.46529734977521
1302	3099500	119	2.9258512324492
1302	3176113	120	4.8863465768765
1302	3257512	121	4.5879333219471
1302	3332722	122	6.3083555850091
1302	3408506	123	7.3793936368691
1302	3494754	124	3.0853006252917
1302	3561916	125	0.973
1303	3099500	119	-0.35495729856193
1303	3176113	120	0.71309358624276
1303	3257512	121	-0.033295201556758
1303	3332722	122	-0.39399168272503
1303	3408506	123	-0.41820174661468
1303	3494754	124	-4.5
1303	3561916	125	-2.0350525552537
1304	3099500	119	0.973
1304	3176113	120	3.9997221442456
1304	3257512	121	1.7771595167448
1304	3332722	122	0.973
1304	3408506	123	0.973
1304	3494754	124	0.973
1304	3561916	125	0.973
1305	3099500	119	1.315591337136
1305	3176113	120	3.6171729046851
1305	3257512	121	6.0551205285126
1305	3332722	122	7.9860035938909
1305	3408506	123	9.8069860274438
1305	3494754	124	11.240512571833
1305	3561916	125	12.565996367513
1306	3099500	119	1.4130811419105
1306	3176113	120	3.9496888424503
1306	3257512	121	5.5922765026335
1306	3332722	122	7.5546889117919
1306	3408506	123	9.8224123229505
1306	3494754	124	11.977691339771
1306	3561916	125	13.369252560334
1307	3099500	119	10.459380083648
1307	3176113	120	11.273202097766
1307	3257512	121	10.391459757393
1307	3332722	122	11.480505259057
1307	3408506	123	11.496357734735
1307	3494754	124	10.450371119777
1307	3561916	125	11.114575233148
1308	3176113	120	2721.7536587552
1308	3257512	121	2720.4259687094
1308	3332722	122	2717.5763862078
1308	3408506	123	2713.6491286281
1308	3494754	124	2708.7834812439
1308	3561916	125	2702.1415071621
1309	3176113	120	5724.1937787796
1309	3257512	121	5725.8443993254
1309	3332722	122	5729.3870781597
1309	3408506	123	5734.2695521001
1309	3494754	124	5740.3186578882
1309	3561916	125	5748.1788893316
1310	3176113	120	2562.0204109589
1310	3257512	121	2551.5801076427
1310	3332722	122	2541.3786646233
1310	3408506	123	2531.1949192275
1310	3494754	124	2521.5609273163
1310	3561916	125	2511.3809108606
1311	3176113	120	5191.9443835616
1311	3257512	121	5188.1907373912
1311	3332722	122	5184.5229696681
1311	3408506	123	5180.861564846
1311	3494754	124	5177.3978152069
1311	3561916	125	5173.7377510663
1312	3176113	120	2.3015815675491
1312	3257512	121	2.4379476238275
1312	3332722	122	1.9308830653783
1312	3408506	123	1.8209824335529
1312	3494754	124	1.4335265443893
1312	3561916	125	1.3254837956797
1313	3176113	120	3.2952420790666
1313	3257512	121	4.9802659287756
1313	3332722	122	5.2585244062958
1313	3408506	123	5.9740835198742
1313	3494754	124	5.6668126097415
1313	3561916	125	5.9135860134274
1314	3176113	120	2.5366077005398
1314	3257512	121	1.6425876601832
1314	3332722	122	1.9624124091584
1314	3408506	123	2.2677234111587
1314	3494754	124	2.1552790168207
1314	3561916	125	1.391561220563
1315	3176113	120	3.7207584261713
1315	3257512	121	3.6097064499681
1315	3332722	122	5.0871943863206
1315	3408506	123	7.0395352948015
1315	3494754	124	8.068025204459
1315	3561916	125	6.4592755221802
1316	3176113	120	0.81382201411761
1316	3257512	121	-0.88174234037288
1316	3332722	122	1.0890455016633
1316	3408506	123	0.015852475678548
1316	3494754	124	-1.0459866149584
1316	3561916	125	0.66420411337167
1317	3176113	120	3.9971920011688
1317	3257512	121	0.973
1317	3332722	122	4.8167760241784
1317	3408506	123	1.8488687959501
1317	3494754	124	0.973
1317	3561916	125	3.5521511968248
1318	3176113	120	2.5008800212527
1318	3257512	121	4.5114693937358
1318	3332722	122	6.3745863788063
1318	3408506	123	7.992716519325
1318	3494754	124	9.1062165492455
1318	3561916	125	9.5939704927856
1319	3176113	120	15.601790341885
1319	3257512	121	16.306998812976
1319	3332722	122	15.365427560812
1319	3408506	123	15.257744642963
1319	3494754	124	16.016988537029
1319	3561916	125	15.705434043925
1320	3257512	121	2458.7931512981
1320	3332722	122	2469.6156382899
1320	3408506	123	2475.9441682539
1320	3494754	124	2482.3643236007
1320	3561916	125	2485.0055279152
1321	3257512	121	3963.247645479
1321	3332722	122	3963.8588661697
1321	3408506	123	3964.216282026
1321	3494754	124	3962.5776439077
1321	3561916	125	3956.7468964985
1322	3257512	121	5619.5640520984
1322	3332722	122	5607.9966752528
1322	3408506	123	5596.9566872946
1322	3494754	124	5585.6789252978
1322	3561916	125	5573.9912891473
1323	3257512	121	2713.2601591896
1323	3332722	122	2707.6982899147
1323	3408506	123	2702.3900017315
1323	3494754	124	2696.9673861483
1323	3561916	125	2691.3476933459
1324	3257512	121	2.0105893724831
1324	3332722	122	1.8631169850705
1324	3408506	123	1.6181301405188
1324	3494754	124	1.1135000299204
1324	3561916	125	0.48775394354016
1325	3257512	121	3.5221575321956
1325	3332722	122	4.3036999142922
1325	3408506	123	4.6596521403868
1325	3494754	124	4.0627258450592
1325	3561916	125	2.78214891797
1326	3257512	121	0.70520847109146
1326	3332722	122	-0.94157125216443
1326	3408506	123	-0.10768291784916
1326	3494754	124	0.75924389406573
1326	3561916	125	-0.31155449310318
1327	3257512	121	5.0686946630392
1327	3332722	122	0.973
1327	3408506	123	1.7781992951132
1327	3494754	124	5.1930029653879
1327	3561916	125	1.0462611062921
1328	3257512	121	2.1184281386668
1328	3332722	122	4.5467206549598
1328	3408506	123	6.2662313322304
1328	3494754	124	7.7635020041605
1328	3561916	125	10.291653191159
1329	3257512	121	11.093772082688
1329	3332722	122	10.839961287012
1329	3408506	123	10.821155951899
1329	3494754	124	10.236992860497
1329	3561916	125	10.817193613742
1330	3332722	122	7524.2059815242
1330	3408506	123	7522.2425744972
1330	3494754	124	7518.0410284713
1330	3561916	125	7511.4408756815
1331	3332722	122	3219.9793071594
1331	3408506	123	3220.3432085322
1331	3494754	124	3221.1219305934
1331	3561916	125	3222.3452147257
1332	3332722	122	2504.404879332
1332	3408506	123	2506.461794404
1332	3494754	124	2510.0415952738
1332	3561916	125	2514.9430505465
1333	3332722	122	3685.7190707354
1333	3408506	123	3685.4128993445
1333	3494754	124	3684.8800467116
1333	3561916	125	3684.1504660892
1334	3332722	122	2.428292516293
1334	3408506	123	1.7195106772706
1334	3494754	124	1.4972706719302
1334	3561916	125	2.528151186998
1335	3332722	122	3.9988417839585
1335	3408506	123	4.0317518637833
1335	3494754	124	4.3291367923697
1335	3561916	125	7.9777131478484
1336	3332722	122	-0.25381079567596
1336	3408506	123	-0.018805335112848
1336	3494754	124	-0.58416309140157
1336	3561916	125	0.58020075324457
1337	3332722	122	0.973
1337	3408506	123	1.7000261512311
1337	3494754	124	0.973
1337	3561916	125	3.2612995519273
1338	3332722	122	10.83703986536
1338	3408506	123	6.3370398653604
1338	3494754	124	6.7656780247277
1338	3561916	125	6.629194612515
1339	3332722	122	12.83600753876
1339	3408506	123	12.250778249158
1339	3494754	124	12.514629716236
1339	3561916	125	12.969456060762
1340	3408506	123	2596.6485038445
1340	3494754	124	2596.4035389512
1340	3561916	125	2595.7438290733
1341	3408506	123	2556.0100810611
1341	3494754	124	2557.4743697123
1341	3561916	125	2561.4178151354
1342	3408506	123	8868.7188235294
1342	3494754	124	8879.0179366272
1342	3561916	125	8889.8957789482
1343	3408506	123	2585.9914705882
1343	3494754	124	2592.2564169159
1343	3561916	125	2599.0078603883
1344	3408506	123	-4.5
1344	3494754	124	0.42863815936726
1344	3561916	125	-0.13648341221269
1345	3408506	123	0.973
1345	3494754	124	2.1638922648267
1345	3561916	125	1.2386541080202
1346	3408506	123	-0.58522928960156
1346	3494754	124	0.26385146707762
1346	3561916	125	0.45482634452637
1347	3408506	123	0.973
1347	3494754	124	2.6905503059358
1347	3561916	125	3.3587986795293
1348	3408506	123	1.9970759754069
1348	3494754	124	4.2735950885806
1348	3561916	125	6.7133337044157
1349	3408506	123	2.0793890550965
1349	3494754	124	3.6189139987109
1349	3561916	125	4.9550088803982
1350	3494754	124	5178.32
1350	3561916	125	5189.1226151337
1351	3494754	124	4377.41
1351	3561916	125	4371.2748141401
1352	3494754	124	5401.0898842889
1352	3561916	125	5412.6688226863
1353	3494754	124	568.20900126841
1353	3561916	125	592.30598799533
1354	3494754	124	2.2765191131737
1354	3561916	125	2.4397386158351
1355	3494754	124	3.6680384554836
1355	3561916	125	5.4090874320535
1356	3494754	124	1.5395249436144
1356	3561916	125	1.3360948816873
1357	3494754	124	2.6316641482224
1357	3561916	125	2.955775310605
1358	3494754	124	1.4846424998716
1358	3561916	125	3.9982599512208
1359	3494754	124	12.050379292561
1359	3561916	125	12.802121117349
1360	3561916	125	6300.5009061033
1361	3561916	125	2543.2754016374
1362	3561916	125	1844.0610445337
1363	3561916	125	3602.9395445961
1364	3561916	125	4754.2429585962
1365	3561916	125	4882.4070753163
1366	3561916	125	2.5136174513493
1367	3561916	125	3.7308537292316
1368	3561916	125	0.75174182478804
1369	3561916	125	4.2407606666774
1370	3561916	125	12.454559720622
1371	3561916	125	26.722026182351

