                                                                
version 3
run General-0-20230823-00:54:40-8184
attr configname General
attr datetime 20230823-00:54:40
attr datetimef 20230823-005440
attr experiment General
attr inifile omnetpp.ini
attr iterationvars "$pathlosstype=\"NakagamiFading\""
attr iterationvarsd pathlosstype=NakagamiFading
attr iterationvarsf pathlosstype=NakagamiFading-
attr measurement "$pathlosstype=\"NakagamiFading\""
attr network Scenario
attr processid 8184
attr repetition 0
attr replication #0
attr resultdir results
attr runnumber 0
attr seedset 0
itervar pathlosstype "\"NakagamiFading\""
config image-path ../../images:../../../veins/images
config **.scalar-recording true
config **.vector-recording true
config cmdenv-express-mode true
config cmdenv-autoflush true
config cmdenv-status-frequency 1s
config **.cmdenv-log-level info
config image-path ../../images
config network Scenario
config debug-on-errors true
config print-undisposed true
config sim-time-limit 1000s
config **.scalar-recording true
config **.vector-recording true
config *.playgroundSizeX 12500m
config *.playgroundSizeY 7500m
config *.playgroundSizeZ 50m
config *.radioMedium.pathLoss.typename NakagamiFading
config *.annotations.draw true
config *.obstacles.obstacles "xmldoc(\"config.xml\", \"//AnalogueModel[@type='SimpleObstacleShadowing']/obstacles\")"
config *.manager.updateInterval 1s
config *.manager.host "\"localhost\""
config *.manager.port 9999
config *.manager.autoShutdown true
config *.manager.launchConfig "xmldoc(\"sumo.launchd.xml\")"
config *.rsu[*].applType "\"RSUApplication\""
config *.rsu[*].appl.headerLength "80 bit"
config *.rsu[*].appl.sendBeacons false
config *.rsu[*].appl.dataOnSch false
config *.rsu[*].appl.beaconInterval 1s
config *.rsu[*].appl.beaconUserPriority 7
config *.rsu[*].appl.dataUserPriority 5
config *.rsu[*].nic.phy80211p.antennaOffsetZ "0 m"
config *.connectionManager.sendDirect true
config *.connectionManager.maxInterfDist 2600m
config *.connectionManager.drawMaxIntfDist false
config *.**.nic.mac1609_4.useServiceChannel false
config *.**.nic.mac1609_4.txPower 20mW
config *.**.nic.mac1609_4.bitrate 6Mbps
config *.**.nic.phy80211p.minPowerLevel -110dBm
config *.**.nic.phy80211p.useNoiseFloor false
config *.**.nic.phy80211p.noiseFloor -98dBm
config *.**.nic.phy80211p.decider "xmldoc(\"config.xml\")"
config *.**.nic.phy80211p.analogueModels "xmldoc(\"config.xml\")"
config *.**.nic.phy80211p.usePropagationDelay true
config *.**.nic.phy80211p.antenna "xmldoc(\"antenna.xml\", \"/root/Antenna[@id='monopole']\")"
config *.node[*].nic.phy80211p.antennaOffsetY "0 m"
config *.node[*].nic.phy80211p.antennaOffsetZ "1.895 m"
config *.node[*].applType "\"VehicleApplication\""
config *.cloud[*].applType "\"VehicleApplication\""
config *.node[*].appl.headerLength "80 bit"
config *.node[*].appl.sendBeacons false
config *.node[*].appl.dataOnSch false
config *.node[*].appl.beaconInterval 1s
config *.node[*].veinsmobility.x 0
config *.node[*].veinsmobility.y 0
config *.node[*].veinsmobility.z 0
config *.node[*].veinsmobility.setHostSpeed false
config *.node[*0].veinsmobility.accidentCount 1
config *.node[*0].veinsmobility.accidentStart 73s
config *.node[*0].veinsmobility.accidentDuration 50s

vector 0 Scenario.node[0].veinsmobility posx ETV
vector 1 Scenario.node[0].veinsmobility posy ETV
vector 2 Scenario.node[1].veinsmobility posx ETV
vector 3 Scenario.node[1].veinsmobility posy ETV
vector 4 Scenario.node[2].veinsmobility posx ETV
vector 5 Scenario.node[2].veinsmobility posy ETV
vector 6 Scenario.node[0].veinsmobility speed ETV
vector 7 Scenario.node[3].veinsmobility posx ETV
vector 8 Scenario.node[3].veinsmobility posy ETV
vector 9 Scenario.node[4].veinsmobility posx ETV
vector 10 Scenario.node[4].veinsmobility posy ETV
vector 11 Scenario.node[0].veinsmobility acceleration ETV
vector 12 Scenario.node[0].veinsmobility co2emission ETV
vector 13 Scenario.node[1].veinsmobility speed ETV
vector 14 Scenario.node[2].veinsmobility speed ETV
vector 15 Scenario.node[5].veinsmobility posx ETV
vector 16 Scenario.node[5].veinsmobility posy ETV
vector 17 Scenario.node[6].veinsmobility posx ETV
vector 18 Scenario.node[6].veinsmobility posy ETV
vector 19 Scenario.node[1].veinsmobility acceleration ETV
vector 20 Scenario.node[1].veinsmobility co2emission ETV
vector 21 Scenario.node[2].veinsmobility acceleration ETV
vector 22 Scenario.node[2].veinsmobility co2emission ETV
vector 23 Scenario.node[3].veinsmobility speed ETV
vector 24 Scenario.node[4].veinsmobility speed ETV
vector 25 Scenario.node[7].veinsmobility posx ETV
vector 26 Scenario.node[7].veinsmobility posy ETV
vector 27 Scenario.node[8].veinsmobility posx ETV
vector 28 Scenario.node[8].veinsmobility posy ETV
vector 29 Scenario.node[9].veinsmobility posx ETV
vector 30 Scenario.node[9].veinsmobility posy ETV
vector 31 Scenario.node[3].veinsmobility acceleration ETV
vector 32 Scenario.node[3].veinsmobility co2emission ETV
vector 33 Scenario.node[4].veinsmobility acceleration ETV
vector 34 Scenario.node[4].veinsmobility co2emission ETV
vector 35 Scenario.node[5].veinsmobility speed ETV
vector 36 Scenario.node[6].veinsmobility speed ETV
vector 37 Scenario.node[10].veinsmobility posx ETV
vector 38 Scenario.node[10].veinsmobility posy ETV
vector 39 Scenario.node[11].veinsmobility posx ETV
vector 40 Scenario.node[11].veinsmobility posy ETV
vector 41 Scenario.node[5].veinsmobility acceleration ETV
vector 42 Scenario.node[5].veinsmobility co2emission ETV
vector 43 Scenario.node[6].veinsmobility acceleration ETV
vector 44 Scenario.node[6].veinsmobility co2emission ETV
vector 45 Scenario.node[7].veinsmobility speed ETV
vector 46 Scenario.node[8].veinsmobility speed ETV
vector 47 Scenario.node[9].veinsmobility speed ETV
vector 48 Scenario.node[12].veinsmobility posx ETV
vector 49 Scenario.node[12].veinsmobility posy ETV
vector 50 Scenario.node[13].veinsmobility posx ETV
vector 51 Scenario.node[13].veinsmobility posy ETV
vector 52 Scenario.node[7].veinsmobility acceleration ETV
vector 53 Scenario.node[7].veinsmobility co2emission ETV
vector 54 Scenario.node[8].veinsmobility acceleration ETV
vector 55 Scenario.node[8].veinsmobility co2emission ETV
vector 56 Scenario.node[9].veinsmobility acceleration ETV
vector 57 Scenario.node[9].veinsmobility co2emission ETV
vector 58 Scenario.node[10].veinsmobility speed ETV
vector 59 Scenario.node[11].veinsmobility speed ETV
vector 60 Scenario.node[14].veinsmobility posx ETV
vector 61 Scenario.node[14].veinsmobility posy ETV
vector 62 Scenario.node[15].veinsmobility posx ETV
vector 63 Scenario.node[15].veinsmobility posy ETV
vector 64 Scenario.node[10].veinsmobility acceleration ETV
vector 65 Scenario.node[10].veinsmobility co2emission ETV
vector 66 Scenario.node[11].veinsmobility acceleration ETV
vector 67 Scenario.node[11].veinsmobility co2emission ETV
vector 68 Scenario.node[12].veinsmobility speed ETV
vector 69 Scenario.node[13].veinsmobility speed ETV
vector 70 Scenario.node[16].veinsmobility posx ETV
vector 71 Scenario.node[16].veinsmobility posy ETV
vector 72 Scenario.node[17].veinsmobility posx ETV
vector 73 Scenario.node[17].veinsmobility posy ETV
vector 74 Scenario.node[18].veinsmobility posx ETV
vector 75 Scenario.node[18].veinsmobility posy ETV
vector 76 Scenario.node[12].veinsmobility acceleration ETV
vector 77 Scenario.node[12].veinsmobility co2emission ETV
vector 78 Scenario.node[13].veinsmobility acceleration ETV
vector 79 Scenario.node[13].veinsmobility co2emission ETV
vector 80 Scenario.node[14].veinsmobility speed ETV
vector 81 Scenario.node[15].veinsmobility speed ETV
vector 82 Scenario.node[19].veinsmobility posx ETV
vector 83 Scenario.node[19].veinsmobility posy ETV
vector 84 Scenario.node[20].veinsmobility posx ETV
vector 85 Scenario.node[20].veinsmobility posy ETV
vector 86 Scenario.node[14].veinsmobility acceleration ETV
vector 87 Scenario.node[14].veinsmobility co2emission ETV
vector 88 Scenario.node[15].veinsmobility acceleration ETV
vector 89 Scenario.node[15].veinsmobility co2emission ETV
vector 90 Scenario.node[16].veinsmobility speed ETV
vector 91 Scenario.node[17].veinsmobility speed ETV
vector 92 Scenario.node[18].veinsmobility speed ETV
vector 93 Scenario.node[21].veinsmobility posx ETV
vector 94 Scenario.node[21].veinsmobility posy ETV
vector 95 Scenario.node[22].veinsmobility posx ETV
vector 96 Scenario.node[22].veinsmobility posy ETV
vector 97 Scenario.node[16].veinsmobility acceleration ETV
vector 98 Scenario.node[16].veinsmobility co2emission ETV
vector 99 Scenario.node[17].veinsmobility acceleration ETV
vector 100 Scenario.node[17].veinsmobility co2emission ETV
vector 101 Scenario.node[18].veinsmobility acceleration ETV
vector 102 Scenario.node[18].veinsmobility co2emission ETV
vector 103 Scenario.node[19].veinsmobility speed ETV
vector 104 Scenario.node[20].veinsmobility speed ETV
vector 105 Scenario.node[23].veinsmobility posx ETV
vector 106 Scenario.node[23].veinsmobility posy ETV
vector 107 Scenario.node[24].veinsmobility posx ETV
vector 108 Scenario.node[24].veinsmobility posy ETV
vector 109 Scenario.node[25].veinsmobility posx ETV
vector 110 Scenario.node[25].veinsmobility posy ETV
vector 111 Scenario.node[19].veinsmobility acceleration ETV
vector 112 Scenario.node[19].veinsmobility co2emission ETV
vector 113 Scenario.node[20].veinsmobility acceleration ETV
vector 114 Scenario.node[20].veinsmobility co2emission ETV
vector 115 Scenario.node[21].veinsmobility speed ETV
vector 116 Scenario.node[22].veinsmobility speed ETV
vector 117 Scenario.node[26].veinsmobility posx ETV
vector 118 Scenario.node[26].veinsmobility posy ETV
vector 119 Scenario.node[27].veinsmobility posx ETV
vector 120 Scenario.node[27].veinsmobility posy ETV
vector 121 Scenario.node[21].veinsmobility acceleration ETV
vector 122 Scenario.node[21].veinsmobility co2emission ETV
vector 123 Scenario.node[22].veinsmobility acceleration ETV
vector 124 Scenario.node[22].veinsmobility co2emission ETV
vector 125 Scenario.node[23].veinsmobility speed ETV
vector 126 Scenario.node[24].veinsmobility speed ETV
vector 127 Scenario.node[25].veinsmobility speed ETV
vector 128 Scenario.node[28].veinsmobility posx ETV
vector 129 Scenario.node[28].veinsmobility posy ETV
vector 130 Scenario.node[29].veinsmobility posx ETV
vector 131 Scenario.node[29].veinsmobility posy ETV
vector 132 Scenario.node[23].veinsmobility acceleration ETV
vector 133 Scenario.node[23].veinsmobility co2emission ETV
vector 134 Scenario.node[24].veinsmobility acceleration ETV
vector 135 Scenario.node[24].veinsmobility co2emission ETV
vector 136 Scenario.node[25].veinsmobility acceleration ETV
vector 137 Scenario.node[25].veinsmobility co2emission ETV
vector 138 Scenario.node[26].veinsmobility speed ETV
vector 139 Scenario.node[27].veinsmobility speed ETV
vector 140 Scenario.node[30].veinsmobility posx ETV
vector 141 Scenario.node[30].veinsmobility posy ETV
vector 142 Scenario.node[31].veinsmobility posx ETV
vector 143 Scenario.node[31].veinsmobility posy ETV
vector 144 Scenario.node[26].veinsmobility acceleration ETV
vector 145 Scenario.node[26].veinsmobility co2emission ETV
vector 146 Scenario.node[27].veinsmobility acceleration ETV
vector 147 Scenario.node[27].veinsmobility co2emission ETV
vector 148 Scenario.node[28].veinsmobility speed ETV
vector 149 Scenario.node[29].veinsmobility speed ETV
vector 150 Scenario.node[32].veinsmobility posx ETV
vector 151 Scenario.node[32].veinsmobility posy ETV
vector 152 Scenario.node[33].veinsmobility posx ETV
vector 153 Scenario.node[33].veinsmobility posy ETV
vector 154 Scenario.node[34].veinsmobility posx ETV
vector 155 Scenario.node[34].veinsmobility posy ETV
vector 156 Scenario.node[28].veinsmobility acceleration ETV
vector 157 Scenario.node[28].veinsmobility co2emission ETV
vector 158 Scenario.node[29].veinsmobility acceleration ETV
vector 159 Scenario.node[29].veinsmobility co2emission ETV
vector 160 Scenario.node[30].veinsmobility speed ETV
vector 161 Scenario.node[31].veinsmobility speed ETV
vector 162 Scenario.node[35].veinsmobility posx ETV
vector 163 Scenario.node[35].veinsmobility posy ETV
vector 164 Scenario.node[36].veinsmobility posx ETV
vector 165 Scenario.node[36].veinsmobility posy ETV
vector 166 Scenario.node[30].veinsmobility acceleration ETV
vector 167 Scenario.node[30].veinsmobility co2emission ETV
vector 168 Scenario.node[31].veinsmobility acceleration ETV
vector 169 Scenario.node[31].veinsmobility co2emission ETV
vector 170 Scenario.node[32].veinsmobility speed ETV
vector 171 Scenario.node[33].veinsmobility speed ETV
vector 172 Scenario.node[34].veinsmobility speed ETV
vector 173 Scenario.node[37].veinsmobility posx ETV
vector 174 Scenario.node[37].veinsmobility posy ETV
vector 175 Scenario.node[38].veinsmobility posx ETV
vector 176 Scenario.node[38].veinsmobility posy ETV
vector 177 Scenario.node[32].veinsmobility acceleration ETV
vector 178 Scenario.node[32].veinsmobility co2emission ETV
vector 179 Scenario.node[33].veinsmobility acceleration ETV
vector 180 Scenario.node[33].veinsmobility co2emission ETV
vector 181 Scenario.node[34].veinsmobility acceleration ETV
vector 182 Scenario.node[34].veinsmobility co2emission ETV
vector 183 Scenario.node[35].veinsmobility speed ETV
vector 184 Scenario.node[36].veinsmobility speed ETV
vector 185 Scenario.node[39].veinsmobility posx ETV
vector 186 Scenario.node[39].veinsmobility posy ETV
vector 187 Scenario.node[40].veinsmobility posx ETV
vector 188 Scenario.node[40].veinsmobility posy ETV
vector 189 Scenario.node[35].veinsmobility acceleration ETV
vector 190 Scenario.node[35].veinsmobility co2emission ETV
vector 191 Scenario.node[36].veinsmobility acceleration ETV
vector 192 Scenario.node[36].veinsmobility co2emission ETV
vector 193 Scenario.node[37].veinsmobility speed ETV
vector 194 Scenario.node[38].veinsmobility speed ETV
vector 195 Scenario.node[41].veinsmobility posx ETV
vector 196 Scenario.node[41].veinsmobility posy ETV
vector 197 Scenario.node[42].veinsmobility posx ETV
vector 198 Scenario.node[42].veinsmobility posy ETV
vector 199 Scenario.node[43].veinsmobility posx ETV
vector 200 Scenario.node[43].veinsmobility posy ETV
vector 201 Scenario.node[37].veinsmobility acceleration ETV
vector 202 Scenario.node[37].veinsmobility co2emission ETV
vector 203 Scenario.node[38].veinsmobility acceleration ETV
vector 204 Scenario.node[38].veinsmobility co2emission ETV
vector 205 Scenario.node[39].veinsmobility speed ETV
vector 206 Scenario.node[40].veinsmobility speed ETV
vector 207 Scenario.node[44].veinsmobility posx ETV
vector 208 Scenario.node[44].veinsmobility posy ETV
vector 209 Scenario.node[45].veinsmobility posx ETV
vector 210 Scenario.node[45].veinsmobility posy ETV
vector 211 Scenario.node[39].veinsmobility acceleration ETV
vector 212 Scenario.node[39].veinsmobility co2emission ETV
vector 213 Scenario.node[40].veinsmobility acceleration ETV
vector 214 Scenario.node[40].veinsmobility co2emission ETV
vector 215 Scenario.node[41].veinsmobility speed ETV
vector 216 Scenario.node[42].veinsmobility speed ETV
vector 217 Scenario.node[43].veinsmobility speed ETV
vector 218 Scenario.node[46].veinsmobility posx ETV
vector 219 Scenario.node[46].veinsmobility posy ETV
vector 220 Scenario.node[47].veinsmobility posx ETV
vector 221 Scenario.node[47].veinsmobility posy ETV
vector 222 Scenario.node[41].veinsmobility acceleration ETV
vector 223 Scenario.node[41].veinsmobility co2emission ETV
vector 224 Scenario.node[42].veinsmobility acceleration ETV
vector 225 Scenario.node[42].veinsmobility co2emission ETV
vector 226 Scenario.node[43].veinsmobility acceleration ETV
vector 227 Scenario.node[43].veinsmobility co2emission ETV
vector 228 Scenario.node[44].veinsmobility speed ETV
vector 229 Scenario.node[45].veinsmobility speed ETV
vector 230 Scenario.node[48].veinsmobility posx ETV
vector 231 Scenario.node[48].veinsmobility posy ETV
vector 232 Scenario.node[49].veinsmobility posx ETV
vector 233 Scenario.node[49].veinsmobility posy ETV
vector 234 Scenario.node[50].veinsmobility posx ETV
vector 235 Scenario.node[50].veinsmobility posy ETV
vector 236 Scenario.node[44].veinsmobility acceleration ETV
vector 237 Scenario.node[44].veinsmobility co2emission ETV
vector 238 Scenario.node[45].veinsmobility acceleration ETV
vector 239 Scenario.node[45].veinsmobility co2emission ETV
vector 240 Scenario.node[46].veinsmobility speed ETV
vector 241 Scenario.node[47].veinsmobility speed ETV
vector 242 Scenario.node[51].veinsmobility posx ETV
vector 243 Scenario.node[51].veinsmobility posy ETV
vector 244 Scenario.node[52].veinsmobility posx ETV
vector 245 Scenario.node[52].veinsmobility posy ETV
vector 246 Scenario.node[46].veinsmobility acceleration ETV
vector 247 Scenario.node[46].veinsmobility co2emission ETV
vector 248 Scenario.node[47].veinsmobility acceleration ETV
vector 249 Scenario.node[47].veinsmobility co2emission ETV
vector 250 Scenario.node[48].veinsmobility speed ETV
vector 251 Scenario.node[49].veinsmobility speed ETV
vector 252 Scenario.node[50].veinsmobility speed ETV
vector 253 Scenario.node[53].veinsmobility posx ETV
vector 254 Scenario.node[53].veinsmobility posy ETV
vector 255 Scenario.node[54].veinsmobility posx ETV
vector 256 Scenario.node[54].veinsmobility posy ETV
vector 257 Scenario.node[48].veinsmobility acceleration ETV
vector 258 Scenario.node[48].veinsmobility co2emission ETV
vector 259 Scenario.node[49].veinsmobility acceleration ETV
vector 260 Scenario.node[49].veinsmobility co2emission ETV
vector 261 Scenario.node[50].veinsmobility acceleration ETV
vector 262 Scenario.node[50].veinsmobility co2emission ETV
vector 263 Scenario.node[51].veinsmobility speed ETV
vector 264 Scenario.node[52].veinsmobility speed ETV
vector 265 Scenario.node[55].veinsmobility posx ETV
vector 266 Scenario.node[55].veinsmobility posy ETV
vector 267 Scenario.node[56].veinsmobility posx ETV
vector 268 Scenario.node[56].veinsmobility posy ETV
vector 269 Scenario.node[51].veinsmobility acceleration ETV
vector 270 Scenario.node[51].veinsmobility co2emission ETV
vector 271 Scenario.node[52].veinsmobility acceleration ETV
vector 272 Scenario.node[52].veinsmobility co2emission ETV
vector 273 Scenario.node[53].veinsmobility speed ETV
vector 274 Scenario.node[54].veinsmobility speed ETV
vector 275 Scenario.node[57].veinsmobility posx ETV
vector 276 Scenario.node[57].veinsmobility posy ETV
vector 277 Scenario.node[58].veinsmobility posx ETV
vector 278 Scenario.node[58].veinsmobility posy ETV
vector 279 Scenario.node[59].veinsmobility posx ETV
vector 280 Scenario.node[59].veinsmobility posy ETV
vector 281 Scenario.node[53].veinsmobility acceleration ETV
vector 282 Scenario.node[53].veinsmobility co2emission ETV
vector 283 Scenario.node[54].veinsmobility acceleration ETV
vector 284 Scenario.node[54].veinsmobility co2emission ETV
vector 285 Scenario.node[55].veinsmobility speed ETV
vector 286 Scenario.node[56].veinsmobility speed ETV
vector 287 Scenario.node[60].veinsmobility posx ETV
vector 288 Scenario.node[60].veinsmobility posy ETV
vector 289 Scenario.node[61].veinsmobility posx ETV
vector 290 Scenario.node[61].veinsmobility posy ETV
vector 291 Scenario.node[55].veinsmobility acceleration ETV
vector 292 Scenario.node[55].veinsmobility co2emission ETV
vector 293 Scenario.node[56].veinsmobility acceleration ETV
vector 294 Scenario.node[56].veinsmobility co2emission ETV
vector 295 Scenario.node[57].veinsmobility speed ETV
vector 296 Scenario.node[58].veinsmobility speed ETV
vector 297 Scenario.node[59].veinsmobility speed ETV
vector 298 Scenario.node[62].veinsmobility posx ETV
vector 299 Scenario.node[62].veinsmobility posy ETV
vector 300 Scenario.node[63].veinsmobility posx ETV
vector 301 Scenario.node[63].veinsmobility posy ETV
vector 302 Scenario.node[57].veinsmobility acceleration ETV
vector 303 Scenario.node[57].veinsmobility co2emission ETV
vector 304 Scenario.node[58].veinsmobility acceleration ETV
vector 305 Scenario.node[58].veinsmobility co2emission ETV
vector 306 Scenario.node[59].veinsmobility acceleration ETV
vector 307 Scenario.node[59].veinsmobility co2emission ETV
vector 308 Scenario.node[60].veinsmobility speed ETV
vector 309 Scenario.node[61].veinsmobility speed ETV
vector 310 Scenario.node[64].veinsmobility posx ETV
vector 311 Scenario.node[64].veinsmobility posy ETV
vector 312 Scenario.node[65].veinsmobility posx ETV
vector 313 Scenario.node[65].veinsmobility posy ETV
vector 314 Scenario.node[60].veinsmobility acceleration ETV
vector 315 Scenario.node[60].veinsmobility co2emission ETV
vector 316 Scenario.node[61].veinsmobility acceleration ETV
vector 317 Scenario.node[61].veinsmobility co2emission ETV
vector 318 Scenario.node[62].veinsmobility speed ETV
vector 319 Scenario.node[63].veinsmobility speed ETV
vector 320 Scenario.node[66].veinsmobility posx ETV
vector 321 Scenario.node[66].veinsmobility posy ETV
vector 322 Scenario.node[67].veinsmobility posx ETV
vector 323 Scenario.node[67].veinsmobility posy ETV
vector 324 Scenario.node[68].veinsmobility posx ETV
vector 325 Scenario.node[68].veinsmobility posy ETV
vector 326 Scenario.node[62].veinsmobility acceleration ETV
vector 327 Scenario.node[62].veinsmobility co2emission ETV
vector 328 Scenario.node[63].veinsmobility acceleration ETV
vector 329 Scenario.node[63].veinsmobility co2emission ETV
vector 330 Scenario.node[64].veinsmobility speed ETV
vector 331 Scenario.node[65].veinsmobility speed ETV
vector 332 Scenario.node[69].veinsmobility posx ETV
vector 333 Scenario.node[69].veinsmobility posy ETV
vector 334 Scenario.node[70].veinsmobility posx ETV
vector 335 Scenario.node[70].veinsmobility posy ETV
vector 336 Scenario.node[64].veinsmobility acceleration ETV
vector 337 Scenario.node[64].veinsmobility co2emission ETV
vector 338 Scenario.node[65].veinsmobility acceleration ETV
vector 339 Scenario.node[65].veinsmobility co2emission ETV
vector 340 Scenario.node[66].veinsmobility speed ETV
vector 341 Scenario.node[67].veinsmobility speed ETV
vector 342 Scenario.node[68].veinsmobility speed ETV
vector 343 Scenario.node[71].veinsmobility posx ETV
vector 344 Scenario.node[71].veinsmobility posy ETV
vector 345 Scenario.node[72].veinsmobility posx ETV
vector 346 Scenario.node[72].veinsmobility posy ETV
vector 347 Scenario.node[66].veinsmobility acceleration ETV
vector 348 Scenario.node[66].veinsmobility co2emission ETV
vector 349 Scenario.node[67].veinsmobility acceleration ETV
vector 350 Scenario.node[67].veinsmobility co2emission ETV
vector 351 Scenario.node[68].veinsmobility acceleration ETV
vector 352 Scenario.node[68].veinsmobility co2emission ETV
vector 353 Scenario.node[69].veinsmobility speed ETV
vector 354 Scenario.node[70].veinsmobility speed ETV
vector 355 Scenario.node[73].veinsmobility posx ETV
vector 356 Scenario.node[73].veinsmobility posy ETV
vector 357 Scenario.node[74].veinsmobility posx ETV
vector 358 Scenario.node[74].veinsmobility posy ETV
vector 359 Scenario.node[75].veinsmobility posx ETV
vector 360 Scenario.node[75].veinsmobility posy ETV
vector 361 Scenario.node[69].veinsmobility acceleration ETV
vector 362 Scenario.node[69].veinsmobility co2emission ETV
vector 363 Scenario.node[70].veinsmobility acceleration ETV
vector 364 Scenario.node[70].veinsmobility co2emission ETV
vector 365 Scenario.node[71].veinsmobility speed ETV
vector 366 Scenario.node[72].veinsmobility speed ETV
vector 367 Scenario.node[76].veinsmobility posx ETV
vector 368 Scenario.node[76].veinsmobility posy ETV
vector 369 Scenario.node[77].veinsmobility posx ETV
vector 370 Scenario.node[77].veinsmobility posy ETV
vector 371 Scenario.node[71].veinsmobility acceleration ETV
vector 372 Scenario.node[71].veinsmobility co2emission ETV
vector 373 Scenario.node[72].veinsmobility acceleration ETV
vector 374 Scenario.node[72].veinsmobility co2emission ETV
vector 375 Scenario.node[73].veinsmobility speed ETV
vector 376 Scenario.node[74].veinsmobility speed ETV
vector 377 Scenario.node[75].veinsmobility speed ETV
vector 378 Scenario.node[78].veinsmobility posx ETV
vector 379 Scenario.node[78].veinsmobility posy ETV
vector 380 Scenario.node[73].veinsmobility acceleration ETV
vector 381 Scenario.node[73].veinsmobility co2emission ETV
vector 382 Scenario.node[74].veinsmobility acceleration ETV
vector 383 Scenario.node[74].veinsmobility co2emission ETV
vector 384 Scenario.node[75].veinsmobility acceleration ETV
vector 385 Scenario.node[75].veinsmobility co2emission ETV
vector 386 Scenario.node[76].veinsmobility speed ETV
vector 387 Scenario.node[77].veinsmobility speed ETV
vector 388 Scenario.node[79].veinsmobility posx ETV
vector 389 Scenario.node[79].veinsmobility posy ETV
vector 390 Scenario.node[80].veinsmobility posx ETV
vector 391 Scenario.node[80].veinsmobility posy ETV
vector 392 Scenario.node[76].veinsmobility acceleration ETV
vector 393 Scenario.node[76].veinsmobility co2emission ETV
vector 394 Scenario.node[77].veinsmobility acceleration ETV
vector 395 Scenario.node[77].veinsmobility co2emission ETV
vector 396 Scenario.node[78].veinsmobility speed ETV
vector 397 Scenario.node[81].veinsmobility posx ETV
vector 398 Scenario.node[81].veinsmobility posy ETV
vector 399 Scenario.node[82].veinsmobility posx ETV
vector 400 Scenario.node[82].veinsmobility posy ETV
vector 401 Scenario.node[83].veinsmobility posx ETV
vector 402 Scenario.node[83].veinsmobility posy ETV
vector 403 Scenario.node[78].veinsmobility acceleration ETV
vector 404 Scenario.node[78].veinsmobility co2emission ETV
vector 405 Scenario.node[79].veinsmobility speed ETV
vector 406 Scenario.node[80].veinsmobility speed ETV
vector 407 Scenario.node[84].veinsmobility posx ETV
vector 408 Scenario.node[84].veinsmobility posy ETV
vector 409 Scenario.node[85].veinsmobility posx ETV
vector 410 Scenario.node[85].veinsmobility posy ETV
vector 411 Scenario.node[79].veinsmobility acceleration ETV
vector 412 Scenario.node[79].veinsmobility co2emission ETV
vector 413 Scenario.node[80].veinsmobility acceleration ETV
vector 414 Scenario.node[80].veinsmobility co2emission ETV
vector 415 Scenario.node[81].veinsmobility speed ETV
vector 416 Scenario.node[82].veinsmobility speed ETV
vector 417 Scenario.node[83].veinsmobility speed ETV
vector 418 Scenario.node[86].veinsmobility posx ETV
vector 419 Scenario.node[86].veinsmobility posy ETV
vector 420 Scenario.node[87].veinsmobility posx ETV
vector 421 Scenario.node[87].veinsmobility posy ETV
vector 422 Scenario.node[81].veinsmobility acceleration ETV
vector 423 Scenario.node[81].veinsmobility co2emission ETV
vector 424 Scenario.node[82].veinsmobility acceleration ETV
vector 425 Scenario.node[82].veinsmobility co2emission ETV
vector 426 Scenario.node[83].veinsmobility acceleration ETV
vector 427 Scenario.node[83].veinsmobility co2emission ETV
vector 428 Scenario.node[84].veinsmobility speed ETV
vector 429 Scenario.node[85].veinsmobility speed ETV
vector 430 Scenario.node[88].veinsmobility posx ETV
vector 431 Scenario.node[88].veinsmobility posy ETV
vector 432 Scenario.node[89].veinsmobility posx ETV
vector 433 Scenario.node[89].veinsmobility posy ETV
vector 434 Scenario.node[90].veinsmobility posx ETV
vector 435 Scenario.node[90].veinsmobility posy ETV
vector 436 Scenario.node[84].veinsmobility acceleration ETV
vector 437 Scenario.node[84].veinsmobility co2emission ETV
vector 438 Scenario.node[85].veinsmobility acceleration ETV
vector 439 Scenario.node[85].veinsmobility co2emission ETV
vector 440 Scenario.node[86].veinsmobility speed ETV
vector 441 Scenario.node[87].veinsmobility speed ETV
vector 442 Scenario.node[91].veinsmobility posx ETV
vector 443 Scenario.node[91].veinsmobility posy ETV
vector 444 Scenario.node[92].veinsmobility posx ETV
vector 445 Scenario.node[92].veinsmobility posy ETV
vector 446 Scenario.node[86].veinsmobility acceleration ETV
vector 447 Scenario.node[86].veinsmobility co2emission ETV
vector 448 Scenario.node[87].veinsmobility acceleration ETV
vector 449 Scenario.node[87].veinsmobility co2emission ETV
vector 450 Scenario.node[88].veinsmobility speed ETV
vector 451 Scenario.node[89].veinsmobility speed ETV
vector 452 Scenario.node[90].veinsmobility speed ETV
vector 453 Scenario.node[93].veinsmobility posx ETV
vector 454 Scenario.node[93].veinsmobility posy ETV
vector 455 Scenario.node[94].veinsmobility posx ETV
vector 456 Scenario.node[94].veinsmobility posy ETV
vector 457 Scenario.node[88].veinsmobility acceleration ETV
vector 458 Scenario.node[88].veinsmobility co2emission ETV
vector 459 Scenario.node[89].veinsmobility acceleration ETV
vector 460 Scenario.node[89].veinsmobility co2emission ETV
vector 461 Scenario.node[90].veinsmobility acceleration ETV
vector 462 Scenario.node[90].veinsmobility co2emission ETV
vector 463 Scenario.node[91].veinsmobility speed ETV
vector 464 Scenario.node[92].veinsmobility speed ETV
vector 465 Scenario.node[95].veinsmobility posx ETV
vector 466 Scenario.node[95].veinsmobility posy ETV
vector 467 Scenario.node[96].veinsmobility posx ETV
vector 468 Scenario.node[96].veinsmobility posy ETV
vector 469 Scenario.node[91].veinsmobility acceleration ETV
vector 470 Scenario.node[91].veinsmobility co2emission ETV
vector 471 Scenario.node[92].veinsmobility acceleration ETV
vector 472 Scenario.node[92].veinsmobility co2emission ETV
vector 473 Scenario.node[93].veinsmobility speed ETV
vector 474 Scenario.node[94].veinsmobility speed ETV
vector 475 Scenario.node[97].veinsmobility posx ETV
vector 476 Scenario.node[97].veinsmobility posy ETV
vector 477 Scenario.node[98].veinsmobility posx ETV
vector 478 Scenario.node[98].veinsmobility posy ETV
vector 479 Scenario.node[93].veinsmobility acceleration ETV
vector 480 Scenario.node[93].veinsmobility co2emission ETV
vector 481 Scenario.node[94].veinsmobility acceleration ETV
vector 482 Scenario.node[94].veinsmobility co2emission ETV
vector 483 Scenario.node[95].veinsmobility speed ETV
vector 484 Scenario.node[96].veinsmobility speed ETV
vector 485 Scenario.node[99].veinsmobility posx ETV
vector 486 Scenario.node[99].veinsmobility posy ETV
vector 487 Scenario.node[100].veinsmobility posx ETV
vector 488 Scenario.node[100].veinsmobility posy ETV
vector 489 Scenario.node[95].veinsmobility acceleration ETV
vector 490 Scenario.node[95].veinsmobility co2emission ETV
vector 491 Scenario.node[96].veinsmobility acceleration ETV
vector 492 Scenario.node[96].veinsmobility co2emission ETV
vector 493 Scenario.node[97].veinsmobility speed ETV
vector 494 Scenario.node[98].veinsmobility speed ETV
vector 495 Scenario.node[101].veinsmobility posx ETV
vector 496 Scenario.node[101].veinsmobility posy ETV
vector 497 Scenario.node[102].veinsmobility posx ETV
vector 498 Scenario.node[102].veinsmobility posy ETV
vector 499 Scenario.node[97].veinsmobility acceleration ETV
vector 500 Scenario.node[97].veinsmobility co2emission ETV
vector 501 Scenario.node[98].veinsmobility acceleration ETV
vector 502 Scenario.node[98].veinsmobility co2emission ETV
vector 503 Scenario.node[99].veinsmobility speed ETV
vector 504 Scenario.node[100].veinsmobility speed ETV
vector 505 Scenario.node[103].veinsmobility posx ETV
vector 506 Scenario.node[103].veinsmobility posy ETV
vector 507 Scenario.node[104].veinsmobility posx ETV
vector 508 Scenario.node[104].veinsmobility posy ETV
vector 509 Scenario.node[105].veinsmobility posx ETV
vector 510 Scenario.node[105].veinsmobility posy ETV
vector 511 Scenario.node[99].veinsmobility acceleration ETV
vector 512 Scenario.node[99].veinsmobility co2emission ETV
vector 513 Scenario.node[100].veinsmobility acceleration ETV
vector 514 Scenario.node[100].veinsmobility co2emission ETV
vector 515 Scenario.node[101].veinsmobility speed ETV
vector 516 Scenario.node[102].veinsmobility speed ETV
vector 517 Scenario.node[106].veinsmobility posx ETV
vector 518 Scenario.node[106].veinsmobility posy ETV
vector 519 Scenario.node[107].veinsmobility posx ETV
vector 520 Scenario.node[107].veinsmobility posy ETV
vector 521 Scenario.node[108].veinsmobility posx ETV
vector 522 Scenario.node[108].veinsmobility posy ETV
vector 523 Scenario.node[101].veinsmobility acceleration ETV
vector 524 Scenario.node[101].veinsmobility co2emission ETV
vector 525 Scenario.node[102].veinsmobility acceleration ETV
vector 526 Scenario.node[102].veinsmobility co2emission ETV
vector 527 Scenario.node[103].veinsmobility speed ETV
vector 528 Scenario.node[104].veinsmobility speed ETV
vector 529 Scenario.node[105].veinsmobility speed ETV
vector 530 Scenario.node[109].veinsmobility posx ETV
vector 531 Scenario.node[109].veinsmobility posy ETV
vector 532 Scenario.node[110].veinsmobility posx ETV
vector 533 Scenario.node[110].veinsmobility posy ETV
vector 534 Scenario.node[103].veinsmobility acceleration ETV
vector 535 Scenario.node[103].veinsmobility co2emission ETV
vector 536 Scenario.node[104].veinsmobility acceleration ETV
vector 537 Scenario.node[104].veinsmobility co2emission ETV
vector 538 Scenario.node[105].veinsmobility acceleration ETV
vector 539 Scenario.node[105].veinsmobility co2emission ETV
vector 540 Scenario.node[106].veinsmobility speed ETV
vector 541 Scenario.node[107].veinsmobility speed ETV
vector 542 Scenario.node[108].veinsmobility speed ETV
vector 543 Scenario.node[111].veinsmobility posx ETV
vector 544 Scenario.node[111].veinsmobility posy ETV
vector 545 Scenario.node[112].veinsmobility posx ETV
vector 546 Scenario.node[112].veinsmobility posy ETV
vector 547 Scenario.node[106].veinsmobility acceleration ETV
vector 548 Scenario.node[106].veinsmobility co2emission ETV
vector 549 Scenario.node[107].veinsmobility acceleration ETV
vector 550 Scenario.node[107].veinsmobility co2emission ETV
vector 551 Scenario.node[108].veinsmobility acceleration ETV
vector 552 Scenario.node[108].veinsmobility co2emission ETV
vector 553 Scenario.node[109].veinsmobility speed ETV
vector 554 Scenario.node[110].veinsmobility speed ETV
vector 555 Scenario.node[113].veinsmobility posx ETV
vector 556 Scenario.node[113].veinsmobility posy ETV
vector 557 Scenario.node[114].veinsmobility posx ETV
vector 558 Scenario.node[114].veinsmobility posy ETV
vector 559 Scenario.node[115].veinsmobility posx ETV
vector 560 Scenario.node[115].veinsmobility posy ETV
vector 561 Scenario.node[109].veinsmobility acceleration ETV
vector 562 Scenario.node[109].veinsmobility co2emission ETV
vector 563 Scenario.node[110].veinsmobility acceleration ETV
vector 564 Scenario.node[110].veinsmobility co2emission ETV
vector 565 Scenario.node[111].veinsmobility speed ETV
vector 566 Scenario.node[112].veinsmobility speed ETV
vector 567 Scenario.node[116].veinsmobility posx ETV
vector 568 Scenario.node[116].veinsmobility posy ETV
vector 569 Scenario.node[117].veinsmobility posx ETV
vector 570 Scenario.node[117].veinsmobility posy ETV
vector 571 Scenario.node[111].veinsmobility acceleration ETV
vector 572 Scenario.node[111].veinsmobility co2emission ETV
vector 573 Scenario.node[112].veinsmobility acceleration ETV
vector 574 Scenario.node[112].veinsmobility co2emission ETV
vector 575 Scenario.node[113].veinsmobility speed ETV
vector 576 Scenario.node[114].veinsmobility speed ETV
vector 577 Scenario.node[115].veinsmobility speed ETV
vector 578 Scenario.node[118].veinsmobility posx ETV
vector 579 Scenario.node[118].veinsmobility posy ETV
vector 580 Scenario.node[119].veinsmobility posx ETV
vector 581 Scenario.node[119].veinsmobility posy ETV
vector 582 Scenario.node[113].veinsmobility acceleration ETV
vector 583 Scenario.node[113].veinsmobility co2emission ETV
vector 584 Scenario.node[114].veinsmobility acceleration ETV
vector 585 Scenario.node[114].veinsmobility co2emission ETV
vector 586 Scenario.node[115].veinsmobility acceleration ETV
vector 587 Scenario.node[115].veinsmobility co2emission ETV
vector 588 Scenario.node[116].veinsmobility speed ETV
vector 589 Scenario.node[117].veinsmobility speed ETV
vector 590 Scenario.node[120].veinsmobility posx ETV
vector 591 Scenario.node[120].veinsmobility posy ETV
vector 592 Scenario.node[121].veinsmobility posx ETV
vector 593 Scenario.node[121].veinsmobility posy ETV
vector 594 Scenario.node[116].veinsmobility acceleration ETV
vector 595 Scenario.node[116].veinsmobility co2emission ETV
vector 596 Scenario.node[117].veinsmobility acceleration ETV
vector 597 Scenario.node[117].veinsmobility co2emission ETV
vector 598 Scenario.node[118].veinsmobility speed ETV
vector 599 Scenario.node[119].veinsmobility speed ETV
vector 600 Scenario.node[122].veinsmobility posx ETV
vector 601 Scenario.node[122].veinsmobility posy ETV
vector 602 Scenario.node[123].veinsmobility posx ETV
vector 603 Scenario.node[123].veinsmobility posy ETV
vector 604 Scenario.node[124].veinsmobility posx ETV
vector 605 Scenario.node[124].veinsmobility posy ETV
vector 606 Scenario.node[118].veinsmobility acceleration ETV
vector 607 Scenario.node[118].veinsmobility co2emission ETV
vector 608 Scenario.node[119].veinsmobility acceleration ETV
vector 609 Scenario.node[119].veinsmobility co2emission ETV
vector 610 Scenario.node[120].veinsmobility speed ETV
vector 611 Scenario.node[121].veinsmobility speed ETV
vector 612 Scenario.node[125].veinsmobility posx ETV
vector 613 Scenario.node[125].veinsmobility posy ETV
vector 614 Scenario.node[126].veinsmobility posx ETV
vector 615 Scenario.node[126].veinsmobility posy ETV
vector 616 Scenario.node[120].veinsmobility acceleration ETV
vector 617 Scenario.node[120].veinsmobility co2emission ETV
vector 618 Scenario.node[121].veinsmobility acceleration ETV
vector 619 Scenario.node[121].veinsmobility co2emission ETV
vector 620 Scenario.node[122].veinsmobility speed ETV
vector 621 Scenario.node[123].veinsmobility speed ETV
vector 622 Scenario.node[124].veinsmobility speed ETV
vector 623 Scenario.node[127].veinsmobility posx ETV
vector 624 Scenario.node[127].veinsmobility posy ETV
vector 625 Scenario.node[128].veinsmobility posx ETV
vector 626 Scenario.node[128].veinsmobility posy ETV
vector 627 Scenario.node[122].veinsmobility acceleration ETV
vector 628 Scenario.node[122].veinsmobility co2emission ETV
vector 629 Scenario.node[123].veinsmobility acceleration ETV
vector 630 Scenario.node[123].veinsmobility co2emission ETV
vector 631 Scenario.node[124].veinsmobility acceleration ETV
vector 632 Scenario.node[124].veinsmobility co2emission ETV
vector 633 Scenario.node[125].veinsmobility speed ETV
vector 634 Scenario.node[126].veinsmobility speed ETV
vector 635 Scenario.node[129].veinsmobility posx ETV
vector 636 Scenario.node[129].veinsmobility posy ETV
vector 637 Scenario.node[130].veinsmobility posx ETV
vector 638 Scenario.node[130].veinsmobility posy ETV
vector 639 Scenario.node[125].veinsmobility acceleration ETV
vector 640 Scenario.node[125].veinsmobility co2emission ETV
vector 641 Scenario.node[126].veinsmobility acceleration ETV
vector 642 Scenario.node[126].veinsmobility co2emission ETV
vector 643 Scenario.node[127].veinsmobility speed ETV
vector 644 Scenario.node[128].veinsmobility speed ETV
vector 645 Scenario.node[131].veinsmobility posx ETV
vector 646 Scenario.node[131].veinsmobility posy ETV
vector 647 Scenario.node[132].veinsmobility posx ETV
vector 648 Scenario.node[132].veinsmobility posy ETV
vector 649 Scenario.node[133].veinsmobility posx ETV
vector 650 Scenario.node[133].veinsmobility posy ETV
vector 651 Scenario.node[127].veinsmobility acceleration ETV
vector 652 Scenario.node[127].veinsmobility co2emission ETV
vector 653 Scenario.node[128].veinsmobility acceleration ETV
vector 654 Scenario.node[128].veinsmobility co2emission ETV
vector 655 Scenario.node[129].veinsmobility speed ETV
vector 656 Scenario.node[130].veinsmobility speed ETV
vector 657 Scenario.node[134].veinsmobility posx ETV
vector 658 Scenario.node[134].veinsmobility posy ETV
vector 659 Scenario.node[129].veinsmobility acceleration ETV
vector 660 Scenario.node[129].veinsmobility co2emission ETV
vector 661 Scenario.node[130].veinsmobility acceleration ETV
vector 662 Scenario.node[130].veinsmobility co2emission ETV
vector 663 Scenario.node[131].veinsmobility speed ETV
vector 664 Scenario.node[132].veinsmobility speed ETV
vector 665 Scenario.node[133].veinsmobility speed ETV
vector 666 Scenario.node[135].veinsmobility posx ETV
vector 667 Scenario.node[135].veinsmobility posy ETV
vector 668 Scenario.node[136].veinsmobility posx ETV
vector 669 Scenario.node[136].veinsmobility posy ETV
vector 670 Scenario.node[131].veinsmobility acceleration ETV
vector 671 Scenario.node[131].veinsmobility co2emission ETV
vector 672 Scenario.node[132].veinsmobility acceleration ETV
vector 673 Scenario.node[132].veinsmobility co2emission ETV
vector 674 Scenario.node[133].veinsmobility acceleration ETV
vector 675 Scenario.node[133].veinsmobility co2emission ETV
vector 676 Scenario.node[134].veinsmobility speed ETV
vector 677 Scenario.node[137].veinsmobility posx ETV
vector 678 Scenario.node[137].veinsmobility posy ETV
vector 679 Scenario.node[138].veinsmobility posx ETV
vector 680 Scenario.node[138].veinsmobility posy ETV
vector 681 Scenario.node[134].veinsmobility acceleration ETV
vector 682 Scenario.node[134].veinsmobility co2emission ETV
vector 683 Scenario.node[135].veinsmobility speed ETV
vector 684 Scenario.node[136].veinsmobility speed ETV
vector 685 Scenario.node[139].veinsmobility posx ETV
vector 686 Scenario.node[139].veinsmobility posy ETV
vector 687 Scenario.node[140].veinsmobility posx ETV
vector 688 Scenario.node[140].veinsmobility posy ETV
vector 689 Scenario.node[141].veinsmobility posx ETV
vector 690 Scenario.node[141].veinsmobility posy ETV
vector 691 Scenario.node[135].veinsmobility acceleration ETV
vector 692 Scenario.node[135].veinsmobility co2emission ETV
vector 693 Scenario.node[136].veinsmobility acceleration ETV
vector 694 Scenario.node[136].veinsmobility co2emission ETV
vector 695 Scenario.node[137].veinsmobility speed ETV
vector 696 Scenario.node[138].veinsmobility speed ETV
vector 697 Scenario.node[142].veinsmobility posx ETV
vector 698 Scenario.node[142].veinsmobility posy ETV
vector 699 Scenario.node[143].veinsmobility posx ETV
vector 700 Scenario.node[143].veinsmobility posy ETV
vector 701 Scenario.node[137].veinsmobility acceleration ETV
vector 702 Scenario.node[137].veinsmobility co2emission ETV
vector 703 Scenario.node[138].veinsmobility acceleration ETV
vector 704 Scenario.node[138].veinsmobility co2emission ETV
vector 705 Scenario.node[139].veinsmobility speed ETV
vector 706 Scenario.node[140].veinsmobility speed ETV
vector 707 Scenario.node[141].veinsmobility speed ETV
vector 708 Scenario.node[144].veinsmobility posx ETV
vector 709 Scenario.node[144].veinsmobility posy ETV
vector 710 Scenario.node[145].veinsmobility posx ETV
vector 711 Scenario.node[145].veinsmobility posy ETV
vector 712 Scenario.node[139].veinsmobility acceleration ETV
vector 713 Scenario.node[139].veinsmobility co2emission ETV
vector 714 Scenario.node[140].veinsmobility acceleration ETV
vector 715 Scenario.node[140].veinsmobility co2emission ETV
vector 716 Scenario.node[141].veinsmobility acceleration ETV
vector 717 Scenario.node[141].veinsmobility co2emission ETV
vector 718 Scenario.node[142].veinsmobility speed ETV
vector 719 Scenario.node[143].veinsmobility speed ETV
vector 720 Scenario.node[146].veinsmobility posx ETV
vector 721 Scenario.node[146].veinsmobility posy ETV
vector 722 Scenario.node[147].veinsmobility posx ETV
vector 723 Scenario.node[147].veinsmobility posy ETV
vector 724 Scenario.node[148].veinsmobility posx ETV
vector 725 Scenario.node[148].veinsmobility posy ETV
vector 726 Scenario.node[142].veinsmobility acceleration ETV
vector 727 Scenario.node[142].veinsmobility co2emission ETV
vector 728 Scenario.node[143].veinsmobility acceleration ETV
vector 729 Scenario.node[143].veinsmobility co2emission ETV
vector 730 Scenario.node[144].veinsmobility speed ETV
vector 731 Scenario.node[145].veinsmobility speed ETV
12	43638 1606 160 545440 3 67 65 0.973 10.954090822367 206.16508959913 1064.7113467867
11	45244 1871 160 545440 3 67 65 -4.5 2.5533435415709 -1.0677612168714 173.71953917703
6	47115 1786 47 545440 2 67 66 3.7178716257677 15.493526366323 846.16628815856 11498.248055659
1	48901 1806 2 545440 1 67 67 3048.9989403064 3178.3240344357 207723.57558056 644086307.67112
0	50707 1809 2 545440 1 67 67 3009.7331046968 3629.8204743811 224464.505856 754521657.67077
vector 732 Scenario.node[149].veinsmobility posx ETV
vector 733 Scenario.node[149].veinsmobility posy ETV
vector 734 Scenario.node[150].veinsmobility posx ETV
vector 735 Scenario.node[150].veinsmobility posy ETV
vector 736 Scenario.node[144].veinsmobility acceleration ETV
vector 737 Scenario.node[144].veinsmobility co2emission ETV
vector 738 Scenario.node[145].veinsmobility acceleration ETV
vector 739 Scenario.node[145].veinsmobility co2emission ETV
vector 740 Scenario.node[146].veinsmobility speed ETV
vector 741 Scenario.node[147].veinsmobility speed ETV
vector 742 Scenario.node[148].veinsmobility speed ETV
77	53132 1499 3314 568250 9 68 60 0.973 12.509436427066 217.88968401311 1303.7593939967
76	54631 1713 3314 568250 9 68 60 -4.5 2.5648112070514 10.482084869046 207.9225139943
68	56344 1727 2465 568250 8 68 61 1.5165522359312 19.469979780959 661.63498659608 7913.7630126423
49	58071 1754 1667 568250 7 68 62 2348.7265777778 2864.3500480671 160807.85386224 418554939.48716
48	59825 1754 1667 568250 7 68 62 5937.0581135842 6219.5178759517 376807.91081314 2290587715.0244
vector 743 Scenario.node[151].veinsmobility posx ETV
vector 744 Scenario.node[151].veinsmobility posy ETV
vector 745 Scenario.node[152].veinsmobility posx ETV
vector 746 Scenario.node[152].veinsmobility posy ETV
vector 747 Scenario.node[146].veinsmobility acceleration ETV
vector 748 Scenario.node[146].veinsmobility co2emission ETV
vector 749 Scenario.node[147].veinsmobility acceleration ETV
vector 750 Scenario.node[147].veinsmobility co2emission ETV
vector 751 Scenario.node[148].veinsmobility acceleration ETV
vector 752 Scenario.node[148].veinsmobility co2emission ETV
vector 753 Scenario.node[149].veinsmobility speed ETV
vector 754 Scenario.node[150].veinsmobility speed ETV
vector 755 Scenario.node[153].veinsmobility posx ETV
vector 756 Scenario.node[153].veinsmobility posy ETV
vector 757 Scenario.node[154].veinsmobility posx ETV
vector 758 Scenario.node[154].veinsmobility posy ETV
vector 759 Scenario.node[149].veinsmobility acceleration ETV
vector 760 Scenario.node[149].veinsmobility co2emission ETV
vector 761 Scenario.node[150].veinsmobility acceleration ETV
vector 762 Scenario.node[150].veinsmobility co2emission ETV
vector 763 Scenario.node[151].veinsmobility speed ETV
vector 764 Scenario.node[152].veinsmobility speed ETV
vector 765 Scenario.node[155].veinsmobility posx ETV
vector 766 Scenario.node[155].veinsmobility posy ETV
vector 767 Scenario.node[156].veinsmobility posx ETV
vector 768 Scenario.node[156].veinsmobility posy ETV
vector 769 Scenario.node[151].veinsmobility acceleration ETV
vector 770 Scenario.node[151].veinsmobility co2emission ETV
vector 771 Scenario.node[152].veinsmobility acceleration ETV
vector 772 Scenario.node[152].veinsmobility co2emission ETV
vector 773 Scenario.node[153].veinsmobility speed ETV
vector 774 Scenario.node[154].veinsmobility speed ETV
vector 775 Scenario.node[157].veinsmobility posx ETV
vector 776 Scenario.node[157].veinsmobility posy ETV
vector 777 Scenario.node[158].veinsmobility posx ETV
vector 778 Scenario.node[158].veinsmobility posy ETV
vector 779 Scenario.node[153].veinsmobility acceleration ETV
vector 780 Scenario.node[153].veinsmobility co2emission ETV
vector 781 Scenario.node[154].veinsmobility acceleration ETV
vector 782 Scenario.node[154].veinsmobility co2emission ETV
vector 783 Scenario.node[155].veinsmobility speed ETV
vector 784 Scenario.node[156].veinsmobility speed ETV
vector 785 Scenario.node[159].veinsmobility posx ETV
vector 786 Scenario.node[159].veinsmobility posy ETV
vector 787 Scenario.node[160].veinsmobility posx ETV
vector 788 Scenario.node[160].veinsmobility posy ETV
vector 789 Scenario.node[155].veinsmobility acceleration ETV
vector 790 Scenario.node[155].veinsmobility co2emission ETV
vector 791 Scenario.node[156].veinsmobility acceleration ETV
vector 792 Scenario.node[156].veinsmobility co2emission ETV
vector 793 Scenario.node[157].veinsmobility speed ETV
vector 794 Scenario.node[158].veinsmobility speed ETV
vector 795 Scenario.node[161].veinsmobility posx ETV
vector 796 Scenario.node[161].veinsmobility posy ETV
vector 797 Scenario.node[162].veinsmobility posx ETV
vector 798 Scenario.node[162].veinsmobility posy ETV
vector 799 Scenario.node[163].veinsmobility posx ETV
vector 800 Scenario.node[163].veinsmobility posy ETV
vector 801 Scenario.node[157].veinsmobility acceleration ETV
vector 802 Scenario.node[157].veinsmobility co2emission ETV
vector 803 Scenario.node[158].veinsmobility acceleration ETV
vector 804 Scenario.node[158].veinsmobility co2emission ETV
vector 805 Scenario.node[159].veinsmobility speed ETV
vector 806 Scenario.node[160].veinsmobility speed ETV
vector 807 Scenario.node[164].veinsmobility posx ETV
vector 808 Scenario.node[164].veinsmobility posy ETV
vector 809 Scenario.node[165].veinsmobility posx ETV
vector 810 Scenario.node[165].veinsmobility posy ETV
vector 811 Scenario.node[159].veinsmobility acceleration ETV
vector 812 Scenario.node[159].veinsmobility co2emission ETV
vector 813 Scenario.node[160].veinsmobility acceleration ETV
vector 814 Scenario.node[160].veinsmobility co2emission ETV
vector 815 Scenario.node[161].veinsmobility speed ETV
vector 816 Scenario.node[162].veinsmobility speed ETV
vector 817 Scenario.node[163].veinsmobility speed ETV
vector 818 Scenario.node[166].veinsmobility posx ETV
vector 819 Scenario.node[166].veinsmobility posy ETV
vector 820 Scenario.node[167].veinsmobility posx ETV
vector 821 Scenario.node[167].veinsmobility posy ETV
vector 822 Scenario.node[161].veinsmobility acceleration ETV
vector 823 Scenario.node[161].veinsmobility co2emission ETV
vector 824 Scenario.node[162].veinsmobility acceleration ETV
vector 825 Scenario.node[162].veinsmobility co2emission ETV
vector 826 Scenario.node[163].veinsmobility acceleration ETV
vector 827 Scenario.node[163].veinsmobility co2emission ETV
vector 828 Scenario.node[164].veinsmobility speed ETV
vector 829 Scenario.node[165].veinsmobility speed ETV
vector 830 Scenario.node[168].veinsmobility posx ETV
vector 831 Scenario.node[168].veinsmobility posy ETV
vector 832 Scenario.node[169].veinsmobility posx ETV
vector 833 Scenario.node[169].veinsmobility posy ETV
vector 834 Scenario.node[164].veinsmobility acceleration ETV
vector 835 Scenario.node[164].veinsmobility co2emission ETV
vector 836 Scenario.node[165].veinsmobility acceleration ETV
vector 837 Scenario.node[165].veinsmobility co2emission ETV
vector 838 Scenario.node[166].veinsmobility speed ETV
vector 839 Scenario.node[167].veinsmobility speed ETV
vector 840 Scenario.node[170].veinsmobility posx ETV
vector 841 Scenario.node[170].veinsmobility posy ETV
vector 842 Scenario.node[171].veinsmobility posx ETV
vector 843 Scenario.node[171].veinsmobility posy ETV
vector 844 Scenario.node[172].veinsmobility posx ETV
vector 845 Scenario.node[172].veinsmobility posy ETV
vector 846 Scenario.node[166].veinsmobility acceleration ETV
vector 847 Scenario.node[166].veinsmobility co2emission ETV
vector 848 Scenario.node[167].veinsmobility acceleration ETV
vector 849 Scenario.node[167].veinsmobility co2emission ETV
vector 850 Scenario.node[168].veinsmobility speed ETV
vector 851 Scenario.node[169].veinsmobility speed ETV
vector 852 Scenario.node[173].veinsmobility posx ETV
vector 853 Scenario.node[173].veinsmobility posy ETV
vector 854 Scenario.node[174].veinsmobility posx ETV
vector 855 Scenario.node[174].veinsmobility posy ETV
vector 856 Scenario.node[168].veinsmobility acceleration ETV
vector 857 Scenario.node[168].veinsmobility co2emission ETV
vector 858 Scenario.node[169].veinsmobility acceleration ETV
vector 859 Scenario.node[169].veinsmobility co2emission ETV
vector 860 Scenario.node[170].veinsmobility speed ETV
vector 861 Scenario.node[171].veinsmobility speed ETV
vector 862 Scenario.node[172].veinsmobility speed ETV
vector 863 Scenario.node[175].veinsmobility posx ETV
vector 864 Scenario.node[175].veinsmobility posy ETV
vector 865 Scenario.node[176].veinsmobility posx ETV
vector 866 Scenario.node[176].veinsmobility posy ETV
vector 867 Scenario.node[170].veinsmobility acceleration ETV
vector 868 Scenario.node[170].veinsmobility co2emission ETV
vector 869 Scenario.node[171].veinsmobility acceleration ETV
vector 870 Scenario.node[171].veinsmobility co2emission ETV
vector 871 Scenario.node[172].veinsmobility acceleration ETV
vector 872 Scenario.node[172].veinsmobility co2emission ETV
vector 873 Scenario.node[173].veinsmobility speed ETV
vector 874 Scenario.node[174].veinsmobility speed ETV
vector 875 Scenario.node[177].veinsmobility posx ETV
vector 876 Scenario.node[177].veinsmobility posy ETV
vector 877 Scenario.node[178].veinsmobility posx ETV
vector 878 Scenario.node[178].veinsmobility posy ETV
vector 879 Scenario.node[173].veinsmobility acceleration ETV
vector 880 Scenario.node[173].veinsmobility co2emission ETV
vector 881 Scenario.node[174].veinsmobility acceleration ETV
vector 882 Scenario.node[174].veinsmobility co2emission ETV
vector 883 Scenario.node[175].veinsmobility speed ETV
vector 884 Scenario.node[176].veinsmobility speed ETV
vector 885 Scenario.node[179].veinsmobility posx ETV
vector 886 Scenario.node[179].veinsmobility posy ETV
vector 887 Scenario.node[175].veinsmobility acceleration ETV
vector 888 Scenario.node[175].veinsmobility co2emission ETV
vector 889 Scenario.node[176].veinsmobility acceleration ETV
vector 890 Scenario.node[176].veinsmobility co2emission ETV
vector 891 Scenario.node[177].veinsmobility speed ETV
vector 892 Scenario.node[178].veinsmobility speed ETV
vector 893 Scenario.node[180].veinsmobility posx ETV
vector 894 Scenario.node[180].veinsmobility posy ETV
vector 895 Scenario.node[177].veinsmobility acceleration ETV
vector 896 Scenario.node[177].veinsmobility co2emission ETV
vector 897 Scenario.node[178].veinsmobility acceleration ETV
vector 898 Scenario.node[178].veinsmobility co2emission ETV
vector 899 Scenario.node[179].veinsmobility speed ETV
vector 900 Scenario.node[181].veinsmobility posx ETV
vector 901 Scenario.node[181].veinsmobility posy ETV
vector 902 Scenario.node[182].veinsmobility posx ETV
vector 903 Scenario.node[182].veinsmobility posy ETV
vector 904 Scenario.node[179].veinsmobility acceleration ETV
vector 905 Scenario.node[179].veinsmobility co2emission ETV
vector 906 Scenario.node[180].veinsmobility speed ETV
vector 907 Scenario.node[183].veinsmobility posx ETV
vector 908 Scenario.node[183].veinsmobility posy ETV
vector 909 Scenario.node[184].veinsmobility posx ETV
vector 910 Scenario.node[184].veinsmobility posy ETV
vector 911 Scenario.node[185].veinsmobility posx ETV
vector 912 Scenario.node[185].veinsmobility posy ETV
vector 913 Scenario.node[180].veinsmobility acceleration ETV
vector 914 Scenario.node[180].veinsmobility co2emission ETV
vector 915 Scenario.node[181].veinsmobility speed ETV
vector 916 Scenario.node[182].veinsmobility speed ETV
vector 917 Scenario.node[186].veinsmobility posx ETV
vector 918 Scenario.node[186].veinsmobility posy ETV
vector 919 Scenario.node[187].veinsmobility posx ETV
vector 920 Scenario.node[187].veinsmobility posy ETV
vector 921 Scenario.node[188].veinsmobility posx ETV
vector 922 Scenario.node[188].veinsmobility posy ETV
vector 923 Scenario.node[181].veinsmobility acceleration ETV
vector 924 Scenario.node[181].veinsmobility co2emission ETV
vector 925 Scenario.node[182].veinsmobility acceleration ETV
vector 926 Scenario.node[182].veinsmobility co2emission ETV
vector 927 Scenario.node[183].veinsmobility speed ETV
vector 928 Scenario.node[184].veinsmobility speed ETV
vector 929 Scenario.node[185].veinsmobility speed ETV
vector 930 Scenario.node[189].veinsmobility posx ETV
vector 931 Scenario.node[189].veinsmobility posy ETV
vector 932 Scenario.node[190].veinsmobility posx ETV
vector 933 Scenario.node[190].veinsmobility posy ETV
vector 934 Scenario.node[191].veinsmobility posx ETV
vector 935 Scenario.node[191].veinsmobility posy ETV
vector 936 Scenario.node[183].veinsmobility acceleration ETV
vector 937 Scenario.node[183].veinsmobility co2emission ETV
vector 938 Scenario.node[184].veinsmobility acceleration ETV
vector 939 Scenario.node[184].veinsmobility co2emission ETV
vector 940 Scenario.node[185].veinsmobility acceleration ETV
vector 941 Scenario.node[185].veinsmobility co2emission ETV
vector 942 Scenario.node[186].veinsmobility speed ETV
vector 943 Scenario.node[187].veinsmobility speed ETV
vector 944 Scenario.node[188].veinsmobility speed ETV
vector 945 Scenario.node[192].veinsmobility posx ETV
vector 946 Scenario.node[192].veinsmobility posy ETV
vector 947 Scenario.node[193].veinsmobility posx ETV
vector 948 Scenario.node[193].veinsmobility posy ETV
vector 949 Scenario.node[186].veinsmobility acceleration ETV
vector 950 Scenario.node[186].veinsmobility co2emission ETV
vector 951 Scenario.node[187].veinsmobility acceleration ETV
vector 952 Scenario.node[187].veinsmobility co2emission ETV
vector 953 Scenario.node[188].veinsmobility acceleration ETV
vector 954 Scenario.node[188].veinsmobility co2emission ETV
vector 955 Scenario.node[189].veinsmobility speed ETV
vector 956 Scenario.node[190].veinsmobility speed ETV
vector 957 Scenario.node[191].veinsmobility speed ETV
vector 958 Scenario.node[194].veinsmobility posx ETV
vector 959 Scenario.node[194].veinsmobility posy ETV
vector 960 Scenario.node[195].veinsmobility posx ETV
vector 961 Scenario.node[195].veinsmobility posy ETV
vector 962 Scenario.node[196].veinsmobility posx ETV
vector 963 Scenario.node[196].veinsmobility posy ETV
vector 964 Scenario.node[189].veinsmobility acceleration ETV
vector 965 Scenario.node[189].veinsmobility co2emission ETV
vector 966 Scenario.node[190].veinsmobility acceleration ETV
vector 967 Scenario.node[190].veinsmobility co2emission ETV
vector 968 Scenario.node[191].veinsmobility acceleration ETV
vector 969 Scenario.node[191].veinsmobility co2emission ETV
vector 970 Scenario.node[192].veinsmobility speed ETV
vector 971 Scenario.node[193].veinsmobility speed ETV
vector 972 Scenario.node[197].veinsmobility posx ETV
vector 973 Scenario.node[197].veinsmobility posy ETV
vector 974 Scenario.node[198].veinsmobility posx ETV
vector 975 Scenario.node[198].veinsmobility posy ETV
vector 976 Scenario.node[192].veinsmobility acceleration ETV
vector 977 Scenario.node[192].veinsmobility co2emission ETV
vector 978 Scenario.node[193].veinsmobility acceleration ETV
vector 979 Scenario.node[193].veinsmobility co2emission ETV
vector 980 Scenario.node[194].veinsmobility speed ETV
vector 981 Scenario.node[195].veinsmobility speed ETV
vector 982 Scenario.node[196].veinsmobility speed ETV
vector 983 Scenario.node[199].veinsmobility posx ETV
vector 984 Scenario.node[199].veinsmobility posy ETV
vector 985 Scenario.node[200].veinsmobility posx ETV
vector 986 Scenario.node[200].veinsmobility posy ETV
vector 987 Scenario.node[194].veinsmobility acceleration ETV
vector 988 Scenario.node[194].veinsmobility co2emission ETV
vector 989 Scenario.node[195].veinsmobility acceleration ETV
vector 990 Scenario.node[195].veinsmobility co2emission ETV
vector 991 Scenario.node[196].veinsmobility acceleration ETV
vector 992 Scenario.node[196].veinsmobility co2emission ETV
vector 993 Scenario.node[197].veinsmobility speed ETV
vector 994 Scenario.node[198].veinsmobility speed ETV
vector 995 Scenario.node[201].veinsmobility posx ETV
vector 996 Scenario.node[201].veinsmobility posy ETV
vector 997 Scenario.node[202].veinsmobility posx ETV
vector 998 Scenario.node[202].veinsmobility posy ETV
vector 999 Scenario.node[203].veinsmobility posx ETV
vector 1000 Scenario.node[203].veinsmobility posy ETV
vector 1001 Scenario.node[197].veinsmobility acceleration ETV
vector 1002 Scenario.node[197].veinsmobility co2emission ETV
vector 1003 Scenario.node[198].veinsmobility acceleration ETV
vector 1004 Scenario.node[198].veinsmobility co2emission ETV
vector 1005 Scenario.node[199].veinsmobility speed ETV
vector 1006 Scenario.node[200].veinsmobility speed ETV
vector 1007 Scenario.node[204].veinsmobility posx ETV
vector 1008 Scenario.node[204].veinsmobility posy ETV
vector 1009 Scenario.node[205].veinsmobility posx ETV
vector 1010 Scenario.node[205].veinsmobility posy ETV
vector 1011 Scenario.node[199].veinsmobility acceleration ETV
vector 1012 Scenario.node[199].veinsmobility co2emission ETV
vector 1013 Scenario.node[200].veinsmobility acceleration ETV
vector 1014 Scenario.node[200].veinsmobility co2emission ETV
vector 1015 Scenario.node[201].veinsmobility speed ETV
vector 1016 Scenario.node[202].veinsmobility speed ETV
vector 1017 Scenario.node[203].veinsmobility speed ETV
vector 1018 Scenario.node[206].veinsmobility posx ETV
vector 1019 Scenario.node[206].veinsmobility posy ETV
vector 1020 Scenario.node[207].veinsmobility posx ETV
vector 1021 Scenario.node[207].veinsmobility posy ETV
vector 1022 Scenario.node[201].veinsmobility acceleration ETV
vector 1023 Scenario.node[201].veinsmobility co2emission ETV
vector 1024 Scenario.node[202].veinsmobility acceleration ETV
vector 1025 Scenario.node[202].veinsmobility co2emission ETV
vector 1026 Scenario.node[203].veinsmobility acceleration ETV
vector 1027 Scenario.node[203].veinsmobility co2emission ETV
vector 1028 Scenario.node[204].veinsmobility speed ETV
vector 1029 Scenario.node[205].veinsmobility speed ETV
vector 1030 Scenario.node[208].veinsmobility posx ETV
vector 1031 Scenario.node[208].veinsmobility posy ETV
vector 1032 Scenario.node[209].veinsmobility posx ETV
vector 1033 Scenario.node[209].veinsmobility posy ETV
vector 1034 Scenario.node[204].veinsmobility acceleration ETV
vector 1035 Scenario.node[204].veinsmobility co2emission ETV
vector 1036 Scenario.node[205].veinsmobility acceleration ETV
vector 1037 Scenario.node[205].veinsmobility co2emission ETV
vector 1038 Scenario.node[206].veinsmobility speed ETV
vector 1039 Scenario.node[207].veinsmobility speed ETV
vector 1040 Scenario.node[210].veinsmobility posx ETV
vector 1041 Scenario.node[210].veinsmobility posy ETV
vector 1042 Scenario.node[211].veinsmobility posx ETV
vector 1043 Scenario.node[211].veinsmobility posy ETV
vector 1044 Scenario.node[212].veinsmobility posx ETV
vector 1045 Scenario.node[212].veinsmobility posy ETV
vector 1046 Scenario.node[206].veinsmobility acceleration ETV
vector 1047 Scenario.node[206].veinsmobility co2emission ETV
vector 1048 Scenario.node[207].veinsmobility acceleration ETV
vector 1049 Scenario.node[207].veinsmobility co2emission ETV
vector 1050 Scenario.node[208].veinsmobility speed ETV
vector 1051 Scenario.node[209].veinsmobility speed ETV
vector 1052 Scenario.node[213].veinsmobility posx ETV
vector 1053 Scenario.node[213].veinsmobility posy ETV
vector 1054 Scenario.node[214].veinsmobility posx ETV
vector 1055 Scenario.node[214].veinsmobility posy ETV
vector 1056 Scenario.node[208].veinsmobility acceleration ETV
vector 1057 Scenario.node[208].veinsmobility co2emission ETV
vector 1058 Scenario.node[209].veinsmobility acceleration ETV
vector 1059 Scenario.node[209].veinsmobility co2emission ETV
vector 1060 Scenario.node[210].veinsmobility speed ETV
vector 1061 Scenario.node[211].veinsmobility speed ETV
vector 1062 Scenario.node[212].veinsmobility speed ETV
vector 1063 Scenario.node[215].veinsmobility posx ETV
vector 1064 Scenario.node[215].veinsmobility posy ETV
vector 1065 Scenario.node[216].veinsmobility posx ETV
vector 1066 Scenario.node[216].veinsmobility posy ETV
vector 1067 Scenario.node[210].veinsmobility acceleration ETV
vector 1068 Scenario.node[210].veinsmobility co2emission ETV
vector 1069 Scenario.node[211].veinsmobility acceleration ETV
vector 1070 Scenario.node[211].veinsmobility co2emission ETV
vector 1071 Scenario.node[212].veinsmobility acceleration ETV
vector 1072 Scenario.node[212].veinsmobility co2emission ETV
vector 1073 Scenario.node[213].veinsmobility speed ETV
vector 1074 Scenario.node[214].veinsmobility speed ETV
vector 1075 Scenario.node[217].veinsmobility posx ETV
vector 1076 Scenario.node[217].veinsmobility posy ETV
vector 1077 Scenario.node[218].veinsmobility posx ETV
vector 1078 Scenario.node[218].veinsmobility posy ETV
vector 1079 Scenario.node[213].veinsmobility acceleration ETV
vector 1080 Scenario.node[213].veinsmobility co2emission ETV
vector 1081 Scenario.node[214].veinsmobility acceleration ETV
vector 1082 Scenario.node[214].veinsmobility co2emission ETV
vector 1083 Scenario.node[215].veinsmobility speed ETV
vector 1084 Scenario.node[216].veinsmobility speed ETV
vector 1085 Scenario.node[219].veinsmobility posx ETV
vector 1086 Scenario.node[219].veinsmobility posy ETV
vector 1087 Scenario.node[220].veinsmobility posx ETV
vector 1088 Scenario.node[220].veinsmobility posy ETV
vector 1089 Scenario.node[221].veinsmobility posx ETV
vector 1090 Scenario.node[221].veinsmobility posy ETV
vector 1091 Scenario.node[215].veinsmobility acceleration ETV
vector 1092 Scenario.node[215].veinsmobility co2emission ETV
vector 1093 Scenario.node[216].veinsmobility acceleration ETV
vector 1094 Scenario.node[216].veinsmobility co2emission ETV
vector 1095 Scenario.node[217].veinsmobility speed ETV
vector 1096 Scenario.node[218].veinsmobility speed ETV
vector 1097 Scenario.node[222].veinsmobility posx ETV
vector 1098 Scenario.node[222].veinsmobility posy ETV
vector 1099 Scenario.node[223].veinsmobility posx ETV
vector 1100 Scenario.node[223].veinsmobility posy ETV
vector 1101 Scenario.node[217].veinsmobility acceleration ETV
vector 1102 Scenario.node[217].veinsmobility co2emission ETV
vector 1103 Scenario.node[218].veinsmobility acceleration ETV
vector 1104 Scenario.node[218].veinsmobility co2emission ETV
vector 1105 Scenario.node[219].veinsmobility speed ETV
vector 1106 Scenario.node[220].veinsmobility speed ETV
vector 1107 Scenario.node[221].veinsmobility speed ETV
vector 1108 Scenario.node[224].veinsmobility posx ETV
vector 1109 Scenario.node[224].veinsmobility posy ETV
vector 1110 Scenario.node[225].veinsmobility posx ETV
vector 1111 Scenario.node[225].veinsmobility posy ETV
vector 1112 Scenario.node[219].veinsmobility acceleration ETV
vector 1113 Scenario.node[219].veinsmobility co2emission ETV
vector 1114 Scenario.node[220].veinsmobility acceleration ETV
vector 1115 Scenario.node[220].veinsmobility co2emission ETV
vector 1116 Scenario.node[221].veinsmobility acceleration ETV
vector 1117 Scenario.node[221].veinsmobility co2emission ETV
vector 1118 Scenario.node[222].veinsmobility speed ETV
vector 1119 Scenario.node[223].veinsmobility speed ETV
vector 1120 Scenario.node[226].veinsmobility posx ETV
vector 1121 Scenario.node[226].veinsmobility posy ETV
vector 1122 Scenario.node[227].veinsmobility posx ETV
vector 1123 Scenario.node[227].veinsmobility posy ETV
vector 1124 Scenario.node[228].veinsmobility posx ETV
vector 1125 Scenario.node[228].veinsmobility posy ETV
vector 1126 Scenario.node[222].veinsmobility acceleration ETV
vector 1127 Scenario.node[222].veinsmobility co2emission ETV
vector 1128 Scenario.node[223].veinsmobility acceleration ETV
vector 1129 Scenario.node[223].veinsmobility co2emission ETV
vector 1130 Scenario.node[224].veinsmobility speed ETV
vector 1131 Scenario.node[225].veinsmobility speed ETV
vector 1132 Scenario.node[229].veinsmobility posx ETV
vector 1133 Scenario.node[229].veinsmobility posy ETV
vector 1134 Scenario.node[230].veinsmobility posx ETV
vector 1135 Scenario.node[230].veinsmobility posy ETV
vector 1136 Scenario.node[224].veinsmobility acceleration ETV
vector 1137 Scenario.node[224].veinsmobility co2emission ETV
vector 1138 Scenario.node[225].veinsmobility acceleration ETV
vector 1139 Scenario.node[225].veinsmobility co2emission ETV
vector 1140 Scenario.node[226].veinsmobility speed ETV
vector 1141 Scenario.node[227].veinsmobility speed ETV
vector 1142 Scenario.node[228].veinsmobility speed ETV
vector 1143 Scenario.node[231].veinsmobility posx ETV
vector 1144 Scenario.node[231].veinsmobility posy ETV
vector 1145 Scenario.node[226].veinsmobility acceleration ETV
vector 1146 Scenario.node[226].veinsmobility co2emission ETV
vector 1147 Scenario.node[227].veinsmobility acceleration ETV
vector 1148 Scenario.node[227].veinsmobility co2emission ETV
vector 1149 Scenario.node[228].veinsmobility acceleration ETV
vector 1150 Scenario.node[228].veinsmobility co2emission ETV
vector 1151 Scenario.node[229].veinsmobility speed ETV
vector 1152 Scenario.node[230].veinsmobility speed ETV
vector 1153 Scenario.node[232].veinsmobility posx ETV
vector 1154 Scenario.node[232].veinsmobility posy ETV
vector 1155 Scenario.node[233].veinsmobility posx ETV
vector 1156 Scenario.node[233].veinsmobility posy ETV
vector 1157 Scenario.node[229].veinsmobility acceleration ETV
vector 1158 Scenario.node[229].veinsmobility co2emission ETV
vector 1159 Scenario.node[230].veinsmobility acceleration ETV
vector 1160 Scenario.node[230].veinsmobility co2emission ETV
vector 1161 Scenario.node[231].veinsmobility speed ETV
vector 1162 Scenario.node[234].veinsmobility posx ETV
vector 1163 Scenario.node[234].veinsmobility posy ETV
vector 1164 Scenario.node[235].veinsmobility posx ETV
vector 1165 Scenario.node[235].veinsmobility posy ETV
vector 1166 Scenario.node[236].veinsmobility posx ETV
vector 1167 Scenario.node[236].veinsmobility posy ETV
vector 1168 Scenario.node[231].veinsmobility acceleration ETV
vector 1169 Scenario.node[231].veinsmobility co2emission ETV
vector 1170 Scenario.node[232].veinsmobility speed ETV
vector 1171 Scenario.node[233].veinsmobility speed ETV
vector 1172 Scenario.node[237].veinsmobility posx ETV
vector 1173 Scenario.node[237].veinsmobility posy ETV
vector 1174 Scenario.node[238].veinsmobility posx ETV
vector 1175 Scenario.node[238].veinsmobility posy ETV
vector 1176 Scenario.node[232].veinsmobility acceleration ETV
vector 1177 Scenario.node[232].veinsmobility co2emission ETV
vector 1178 Scenario.node[233].veinsmobility acceleration ETV
vector 1179 Scenario.node[233].veinsmobility co2emission ETV
vector 1180 Scenario.node[234].veinsmobility speed ETV
vector 1181 Scenario.node[235].veinsmobility speed ETV
vector 1182 Scenario.node[236].veinsmobility speed ETV
vector 1183 Scenario.node[239].veinsmobility posx ETV
vector 1184 Scenario.node[239].veinsmobility posy ETV
vector 1185 Scenario.node[240].veinsmobility posx ETV
vector 1186 Scenario.node[240].veinsmobility posy ETV
vector 1187 Scenario.node[234].veinsmobility acceleration ETV
vector 1188 Scenario.node[234].veinsmobility co2emission ETV
vector 1189 Scenario.node[235].veinsmobility acceleration ETV
vector 1190 Scenario.node[235].veinsmobility co2emission ETV
vector 1191 Scenario.node[236].veinsmobility acceleration ETV
vector 1192 Scenario.node[236].veinsmobility co2emission ETV
vector 1193 Scenario.node[237].veinsmobility speed ETV
vector 1194 Scenario.node[238].veinsmobility speed ETV
vector 1195 Scenario.node[241].veinsmobility posx ETV
vector 1196 Scenario.node[241].veinsmobility posy ETV
vector 1197 Scenario.node[242].veinsmobility posx ETV
vector 1198 Scenario.node[242].veinsmobility posy ETV
vector 1199 Scenario.node[237].veinsmobility acceleration ETV
vector 1200 Scenario.node[237].veinsmobility co2emission ETV
vector 1201 Scenario.node[238].veinsmobility acceleration ETV
vector 1202 Scenario.node[238].veinsmobility co2emission ETV
vector 1203 Scenario.node[239].veinsmobility speed ETV
vector 1204 Scenario.node[240].veinsmobility speed ETV
462	87757 1897 169801 2224273 43 110 68 0.010479108788315 21.066166860097 351.03705985234 3338.1913045363
461	89654 2055 169801 2224273 43 110 68 -4.5 2.5923178344034 13.020861304688 295.95790886789
452	91709 2105 158124 2224273 42 110 69 1.7972740404308 31.231053368811 1008.6265516893 19211.001027621
435	93814 2129 147987 2224273 41 110 70 1156.1172453239 1572.0661413123 98932.289364232 141105005.8332
434	95943 2133 147987 2224273 41 110 70 6620.7513746631 7322.8132304894 484442.28405035 3356003462.8489
vector 1205 Scenario.node[243].veinsmobility posx ETV
vector 1206 Scenario.node[243].veinsmobility posy ETV
vector 1207 Scenario.node[244].veinsmobility posx ETV
vector 1208 Scenario.node[244].veinsmobility posy ETV
vector 1209 Scenario.node[245].veinsmobility posx ETV
vector 1210 Scenario.node[245].veinsmobility posy ETV
vector 1211 Scenario.node[239].veinsmobility acceleration ETV
vector 1212 Scenario.node[239].veinsmobility co2emission ETV
vector 1213 Scenario.node[240].veinsmobility acceleration ETV
vector 1214 Scenario.node[240].veinsmobility co2emission ETV
vector 1215 Scenario.node[241].veinsmobility speed ETV
vector 1216 Scenario.node[242].veinsmobility speed ETV
vector 1217 Scenario.node[246].veinsmobility posx ETV
vector 1218 Scenario.node[246].veinsmobility posy ETV
vector 1219 Scenario.node[247].veinsmobility posx ETV
vector 1220 Scenario.node[247].veinsmobility posy ETV
vector 1221 Scenario.node[241].veinsmobility acceleration ETV
vector 1222 Scenario.node[241].veinsmobility co2emission ETV
vector 1223 Scenario.node[242].veinsmobility acceleration ETV
vector 1224 Scenario.node[242].veinsmobility co2emission ETV
vector 1225 Scenario.node[243].veinsmobility speed ETV
vector 1226 Scenario.node[244].veinsmobility speed ETV
vector 1227 Scenario.node[245].veinsmobility speed ETV
vector 1228 Scenario.node[248].veinsmobility posx ETV
vector 1229 Scenario.node[248].veinsmobility posy ETV
vector 1230 Scenario.node[249].veinsmobility posx ETV
vector 1231 Scenario.node[249].veinsmobility posy ETV
vector 1232 Scenario.node[243].veinsmobility acceleration ETV
vector 1233 Scenario.node[243].veinsmobility co2emission ETV
vector 1234 Scenario.node[244].veinsmobility acceleration ETV
vector 1235 Scenario.node[244].veinsmobility co2emission ETV
vector 1236 Scenario.node[245].veinsmobility acceleration ETV
vector 1237 Scenario.node[245].veinsmobility co2emission ETV
vector 1238 Scenario.node[246].veinsmobility speed ETV
vector 1239 Scenario.node[247].veinsmobility speed ETV
vector 1240 Scenario.node[250].veinsmobility posx ETV
vector 1241 Scenario.node[250].veinsmobility posy ETV
vector 1242 Scenario.node[251].veinsmobility posx ETV
vector 1243 Scenario.node[251].veinsmobility posy ETV
vector 1244 Scenario.node[252].veinsmobility posx ETV
vector 1245 Scenario.node[252].veinsmobility posy ETV
vector 1246 Scenario.node[246].veinsmobility acceleration ETV
vector 1247 Scenario.node[246].veinsmobility co2emission ETV
vector 1248 Scenario.node[247].veinsmobility acceleration ETV
vector 1249 Scenario.node[247].veinsmobility co2emission ETV
vector 1250 Scenario.node[248].veinsmobility speed ETV
vector 1251 Scenario.node[249].veinsmobility speed ETV
vector 1252 Scenario.node[253].veinsmobility posx ETV
vector 1253 Scenario.node[253].veinsmobility posy ETV
vector 1254 Scenario.node[254].veinsmobility posx ETV
vector 1255 Scenario.node[254].veinsmobility posy ETV
vector 1256 Scenario.node[248].veinsmobility acceleration ETV
vector 1257 Scenario.node[248].veinsmobility co2emission ETV
vector 1258 Scenario.node[249].veinsmobility acceleration ETV
vector 1259 Scenario.node[249].veinsmobility co2emission ETV
vector 1260 Scenario.node[250].veinsmobility speed ETV
vector 1261 Scenario.node[251].veinsmobility speed ETV
vector 1262 Scenario.node[252].veinsmobility speed ETV
vector 1263 Scenario.node[255].veinsmobility posx ETV
vector 1264 Scenario.node[255].veinsmobility posy ETV
vector 1265 Scenario.node[256].veinsmobility posx ETV
vector 1266 Scenario.node[256].veinsmobility posy ETV
vector 1267 Scenario.node[250].veinsmobility acceleration ETV
vector 1268 Scenario.node[250].veinsmobility co2emission ETV
vector 1269 Scenario.node[251].veinsmobility acceleration ETV
vector 1270 Scenario.node[251].veinsmobility co2emission ETV
vector 1271 Scenario.node[252].veinsmobility acceleration ETV
vector 1272 Scenario.node[252].veinsmobility co2emission ETV
vector 1273 Scenario.node[253].veinsmobility speed ETV
vector 1274 Scenario.node[254].veinsmobility speed ETV
vector 1275 Scenario.node[257].veinsmobility posx ETV
vector 1276 Scenario.node[257].veinsmobility posy ETV
vector 1277 Scenario.node[258].veinsmobility posx ETV
vector 1278 Scenario.node[258].veinsmobility posy ETV
vector 1279 Scenario.node[253].veinsmobility acceleration ETV
vector 1280 Scenario.node[253].veinsmobility co2emission ETV
vector 1281 Scenario.node[254].veinsmobility acceleration ETV
vector 1282 Scenario.node[254].veinsmobility co2emission ETV
vector 1283 Scenario.node[255].veinsmobility speed ETV
vector 1284 Scenario.node[256].veinsmobility speed ETV
vector 1285 Scenario.node[259].veinsmobility posx ETV
vector 1286 Scenario.node[259].veinsmobility posy ETV
vector 1287 Scenario.node[260].veinsmobility posx ETV
vector 1288 Scenario.node[260].veinsmobility posy ETV
vector 1289 Scenario.node[261].veinsmobility posx ETV
vector 1290 Scenario.node[261].veinsmobility posy ETV
vector 1291 Scenario.node[255].veinsmobility acceleration ETV
vector 1292 Scenario.node[255].veinsmobility co2emission ETV
vector 1293 Scenario.node[256].veinsmobility acceleration ETV
vector 1294 Scenario.node[256].veinsmobility co2emission ETV
vector 1295 Scenario.node[257].veinsmobility speed ETV
vector 1296 Scenario.node[258].veinsmobility speed ETV
vector 1297 Scenario.node[262].veinsmobility posx ETV
vector 1298 Scenario.node[262].veinsmobility posy ETV
vector 1299 Scenario.node[263].veinsmobility posx ETV
vector 1300 Scenario.node[263].veinsmobility posy ETV
vector 1301 Scenario.node[257].veinsmobility acceleration ETV
vector 1302 Scenario.node[257].veinsmobility co2emission ETV
vector 1303 Scenario.node[258].veinsmobility acceleration ETV
vector 1304 Scenario.node[258].veinsmobility co2emission ETV
vector 1305 Scenario.node[259].veinsmobility speed ETV
vector 1306 Scenario.node[260].veinsmobility speed ETV
vector 1307 Scenario.node[261].veinsmobility speed ETV
vector 1308 Scenario.node[264].veinsmobility posx ETV
vector 1309 Scenario.node[264].veinsmobility posy ETV
vector 1310 Scenario.node[265].veinsmobility posx ETV
vector 1311 Scenario.node[265].veinsmobility posy ETV
vector 1312 Scenario.node[259].veinsmobility acceleration ETV
vector 1313 Scenario.node[259].veinsmobility co2emission ETV
vector 1314 Scenario.node[260].veinsmobility acceleration ETV
vector 1315 Scenario.node[260].veinsmobility co2emission ETV
vector 1316 Scenario.node[261].veinsmobility acceleration ETV
vector 1317 Scenario.node[261].veinsmobility co2emission ETV
vector 1318 Scenario.node[262].veinsmobility speed ETV
vector 1319 Scenario.node[263].veinsmobility speed ETV
303	104654 2629 58735 2874650 29 120 92 -2.0490136352048 24.719832058958 671.00196905434 7874.0372734447
302	107283 2747 58735 2874650 29 120 92 -4.5 2.5651967352023 14.024348566591 408.12371583429
295	110030 2816 53618 2874650 28 120 93 2.0072538219159 33.874932 2053.9142970169 53819.707281219
276	112846 2859 48808 2874650 27 120 94 1668.5580748976 2413.6903002995 192756.65203308 399954896.18591
275	115705 2854 48808 2874650 27 120 94 5271.6981977765 6756.2695151547 569999.49250727 3477178564.4621
vector 1320 Scenario.node[266].veinsmobility posx ETV
vector 1321 Scenario.node[266].veinsmobility posy ETV
vector 1322 Scenario.node[267].veinsmobility posx ETV
vector 1323 Scenario.node[267].veinsmobility posy ETV
vector 1324 Scenario.node[262].veinsmobility acceleration ETV
vector 1325 Scenario.node[262].veinsmobility co2emission ETV
vector 1326 Scenario.node[263].veinsmobility acceleration ETV
vector 1327 Scenario.node[263].veinsmobility co2emission ETV
vector 1328 Scenario.node[264].veinsmobility speed ETV
vector 1329 Scenario.node[265].veinsmobility speed ETV
137	119131 2951 10026 2960890 14 121 108 0.973 9.7207653610597 310.55405484534 1398.6470524506
136	122082 3402 10026 2960890 14 121 108 -4.5 2.5665840328607 11.840593674756 185.00249552289
127	125484 3315 8360 2960890 13 121 109 0.00036676482288597 15.075351787808 1274.6819325083 17091.684303855
110	128799 3317 6984 2960890 12 121 110 3073.3635406839 3642.6165806348 365789.42856877 1217890769.8782
[...]
8876	79671751 595 434980697 451593467 789 805 17 0 14.143634036745 88.98072997116 900.29602309221
8877	79672346 592 434980697 451593467 789 805 17 6.4650271550252 13.86412971894 192.85696350412 2316.4802485554
8878	79672938 558 435841690 451593467 790 805 16 8629.3940480614 8709.7199491434 138892.37834217 1205704938.9744
8879	79673496 556 435841690 451593467 790 805 16 5365.997747277 5443.7188398731 86535.134765752 468032983.10634
8880	79674052 558 435841690 451593467 790 805 16 5973.9395488833 6118.2726775662 96518.041941843 582269626.65945
8881	79674610 558 435841690 451593467 790 805 16 3586.5288166723 3662.4771577973 58110.130630094 211059199.09046
8882	79675168 570 435841690 451593467 790 805 16 -0.49301776685752 2.3181569413515 17.280361069389 35.217090811909
8883	79675738 538 435841690 451593467 790 805 16 0.70330360466382 11.7295536281 85.928702861501 655.4916113665
8884	79676276 581 435841690 451593467 790 805 16 -4.4931156034948 2.1910824026912 -2.3112576632062 75.691658460519
8885	79676857 510 435841690 451593467 790 805 16 0.973 7.1659476768651 47.351897495013 226.79479142314
8886	79677367 581 435841690 451593467 790 805 16 -4.3813638929394 2.4656890547602 -0.47918889597058 41.083586314833
8887	79677948 509 435841690 451593467 790 805 16 0.973 8.3884549199302 47.600737916164 224.96143660917
8888	79678457 557 435841690 451593467 790 805 16 2.4319209680194 13.93491142666 177.19394901383 2187.2306353537
8889	79679014 558 435841690 451593467 790 805 16 1.9574189219158 15.152201692646 188.93572116599 2496.3624344624
8890	79679572 525 437217247 451593467 791 805 15 8423.8215892826 8557.0049679707 127541.318185 1084481508.1218
8891	79680097 523 437217247 451593467 791 805 15 4726.6689891916 4765.3263000753 71172.651285517 337705970.47839
8892	79680620 525 437217247 451593467 791 805 15 5346.9770103928 5420.6124123608 80950.746156765 436877674.83951
8893	79681145 523 437217247 451593467 791 805 15 2017.4612110083 2070.4312721923 30747.828226738 63033963.656228
8894	79681668 525 437217247 451593467 791 805 15 8679.2448429108 8780.2379950789 131102.34149178 1145871727.4349
8895	79682193 523 437217247 451593467 791 805 15 3728.746013475 3824.9604097097 56662.101116414 214054572.14709
8896	79682716 524 437217247 451593467 791 805 15 6369.1937680316 6516.9869322364 96653.387987194 622823183.68644
8897	79683240 525 437217247 451593467 791 805 15 5421.2898939164 5513.0373474471 82003.088509224 448312518.85665
8898	79683765 539 437217247 451593467 791 805 15 -0.73493454344571 2.5668049300788 11.50299045864 25.81024846434
8899	79684304 493 437217247 451593467 791 805 15 0.973 8.0789494693382 56.31721266357 301.11287519214
8900	79684797 536 437217247 451593467 791 805 15 -0.9633572236402 2.5376220999286 12.850391180187 26.503704599164
8901	79685333 504 437217247 451593467 791 805 15 0.973 7.3579255488926 60.278448571948 302.58508537603
8902	79685837 525 437217247 451593467 791 805 15 2.2280671131564 13.874379983893 161.10987879016 1932.104859078
8903	79686362 524 437217247 451593467 791 805 15 2.2735436205519 15.088471784572 163.09609917193 2044.6255382629
8904	79686886 487 438079467 451593467 792 805 14 5132.211414839 5218.1547573744 72398.994652918 374414609.20953
8905	79687373 488 438079467 451593467 792 805 14 2501.6981883447 2572.4323173692 35454.871683628 89797148.422492
8906	79687861 488 438079467 451593467 792 805 14 6289.1536613426 6332.7988500203 88288.518767939 556777826.79114
8907	79688349 488 438079467 451593467 792 805 14 3382.4450894263 3453.7555578684 47923.349323106 164053558.77105
8908	79688837 502 438079467 451593467 792 805 14 -1.0266815194162 2.5771150158951 10.615410063299 26.194453417889
8909	79689339 457 438079467 451593467 792 805 14 0.973 9.1282562517281 52.071199632556 276.24761852683
8910	79689796 498 438079467 451593467 792 805 14 -0.8711557189934 2.0926540146815 11.827498882882 20.769425462296
8911	79690294 478 438079467 451593467 792 805 14 0.973 7.9072923799215 53.519719715761 262.26988014661
8912	79690772 488 438079467 451593467 792 805 14 1.8205863760784 12.925415439316 140.14165661158 1583.9041274835
8913	79691260 487 438079467 451593467 792 805 14 1.8747292582644 10.154602015312 115.78818972309 1039.8936835972
8914	79691747 490 438079467 451593467 792 805 14 4.6415624842244 12.473618978399 143.92628406891 1577.4431870437
8915	79692237 486 438079467 451593467 792 805 14 11.990413955154 13.076494415428 173.95184625982 2163.2917390093
8916	79692723 453 439167323 451593467 793 805 13 4932.8681633325 4969.4990401446 64382.35057492 318855187.2875
8917	79693176 453 439167323 451593467 793 805 13 4070.495462666 4133.5659115132 53307.879322751 218600930.67476
8918	79693629 455 439167323 451593467 793 805 13 6210.6510004197 6215.5476301286 80775.515884561 501898801.77756
8919	79694084 454 439167323 451593467 793 805 13 3119.3981611401 3236.884542671 41441.197513652 132125827.62083
8920	79694538 467 439167323 451593467 793 805 13 -0.81030067442916 2.3708137787413 11.104829063238 24.328624655072
8921	79695005 425 439167323 451593467 793 805 13 0.973 8.8074830465571 47.529270164998 240.06463620797
8922	79695430 469 439167323 451593467 793 805 13 -0.84755744473077 2.2853473027237 7.4157950362336 18.817222014233
8923	79695899 415 439167323 451593467 793 805 13 0.973 6.2205856743672 35.597429858538 135.51352075064
8924	79696314 455 439167323 451593467 793 805 13 -4.5 1.1427261308449 -5.5972014524838 32.64134027879
8925	79696769 413 439167323 451593467 793 805 13 0.973 5.0342135917717 27.248767678243 76.703208294167
8926	79697182 472 439167323 451593467 793 805 13 -1.0099833456799 0.74417883816641 0.55407335830387 4.7126473622755
8927	79697654 414 439167323 451593467 793 805 13 0.973 4.2926016636176 31.847304394553 100.8533967963
8928	79698068 452 439167323 451593467 793 805 13 1.6407330448739 13.124383771348 115.06721657458 1198.8155542609
8929	79698520 455 439167323 451593467 793 805 13 1.4168866180582 15.534882128846 101.73472521545 974.13124001593
8930	79698975 418 440322535 451593467 794 805 12 6218.0743609506 6298.6527159916 74995.390409031 468701859.8385
8931	79699393 418 440322535 451593467 794 805 12 2768.9265480698 2835.1186741557 33647.49246133 94350595.231079
8932	79699811 417 440322535 451593467 794 805 12 7271.578488946 7367.7478553713 87837.209320945 642958848.84644
8933	79700228 415 440322535 451593467 794 805 12 503.6793883725 610.78995096002 6686.8029334801 3739674.1236843
8934	79700643 427 440322535 451593467 794 805 12 -4.0184614410158 2.2916965177748 3.0431255967489 48.645740438118
8935	79701070 376 440322535 451593467 794 805 12 0.973 6.8016471831311 40.10633714917 180.58131850363
8936	79701446 422 440322535 451593467 794 805 12 -3.3573658323148 2.4943759443006 14.117995510788 48.437581230427
8937	79701868 399 440322535 451593467 794 805 12 0.973 11.074704468488 58.694277997991 403.45533051121
8938	79702267 419 440322535 451593467 794 805 12 1.5101467826637 11.450175261159 79.477283469828 625.65796081664
8939	79702686 419 440322535 451593467 794 805 12 1.9523203182034 13.006127675489 117.5911222734 1304.4833814144
8940	79703105 379 441412640 451593467 795 805 11 7504.5475706 7582.444352085 82887.300403536 624580574.73788
8941	79703484 385 441412640 451593467 795 805 11 3649.3738823273 3702.7280890005 40498.996179842 149109731.38606
8942	79703869 383 441412640 451593467 795 805 11 7152.3218400454 7238.7928435399 79155.406293865 569606279.8279
8943	79704252 383 441412640 451593467 795 805 11 5530.2546774129 5613.412756114 61294.610147464 341555688.3434
8944	79704635 376 441412640 451593467 795 805 11 -4.5 2.4920827377355 6.3246095188649 58.979894638723
8945	79705011 365 441412640 451593467 795 805 11 0.973 8.5481767599218 40.344136351174 191.04165316653
8946	79705376 392 441412640 451593467 795 805 11 -0.73800980630331 2.5770453629084 9.9171175558413 23.360877208268
8947	79705768 354 441412640 451593467 795 805 11 0.973 7.960275713234 40.743293005814 201.02801521394
8948	79706122 384 441412640 451593467 795 805 11 5.5092805241675 12.649676406405 112.47563520995 1216.7666468016
8949	79706506 385 441412640 451593467 795 805 11 12.420270735484 13.395661256339 143.94982986908 1884.7359466864
8950	79706891 350 442841845 451593467 796 805 10 6145.4805420141 6204.7851415508 61801.479634518 381946646.56707
8951	79707241 349 442841845 451593467 796 805 10 3257.0692130378 3289.4303989991 32660.827795773 106674041.70156
8952	79707590 362 442841845 451593467 796 805 10 -3.7834063171991 2.1335396635101 -3.6423490979733 31.700504367827
8953	79707952 299 442841845 451593467 796 805 10 0.973 5.4497397294341 22.736887374065 82.510322416395
8954	79708251 366 442841845 451593467 796 805 10 -0.80402397934813 0.52990617852192 0.079404656379483 1.8662416991479
8955	79708617 329 442841845 451593467 796 805 10 0.973 3.5891816280183 22.376077273583 59.687573286199
8956	79708946 349 442841845 451593467 796 805 10 2.2741295935819 13.735164580087 94.418756889123 1051.4402507889
8957	79709295 350 442841845 451593467 796 805 10 11.217320685413 12.435249410289 119.99911552657 1441.6880650858
8958	79709645 313 443903746 451593467 797 805 9 5452.277649302 5504.0895658709 49278.636748045 269823433.617
8959	79709958 315 443903746 451593467 797 805 9 4272.1598168496 4283.7402736648 38500.173637939 164696098.85257
8960	79710273 312 443903746 451593467 797 805 9 7362.3951621937 7377.1407692308 66332.997838735 488896489.56795
8961	79710585 315 443903746 451593467 797 805 9 3184.1472042635 3271.3392307692 29097.189213583 94079007.540987
8962	79710900 319 443903746 451593467 797 805 9 -0.48157301030587 2.1394935323624 11.461034986505 21.297357767666
8963	79711219 303 443903746 451593467 797 805 9 0.973 8.2318723670288 40.818329915046 223.0864702978
8964	79711522 326 443903746 451593467 797 805 9 -1.2179287248757 1.1566421345342 -0.38183508857619 5.2957172539713
8965	79711848 275 443903746 451593467 797 805 9 0.973 5.3311960453729 21.305149349924 74.447819906171
8966	79712123 313 443903746 451593467 797 805 9 1.383484813571 11.942463454878 70.79929492805 683.74892088151
8967	79712436 278 444714493 451593467 798 805 8 9010.9487336174 9060.8270712659 72338.320353501 654106386.85634
8968	79712714 279 444714493 451593467 798 805 8 3363.1365961601 3380.9634196712 26958.094745806 90842654.489697
8969	79712993 279 444714493 451593467 798 805 8 6044.6463168878 6099.2856963631 48521.646452414 294296620.56022
8970	79713272 280 444714493 451593467 798 805 8 3277.3107573253 3281.2713161425 26238.248421847 86055724.998563
8971	79713552 279 444714493 451593467 798 805 8 7914.7819833291 7948.4441425142 63416.764093577 502711786.95226
8972	79713831 277 444714493 451593467 798 805 8 2575.9902331483 2610.4850545833 20708.869346335 53608251.800315
8973	79714108 282 444714493 451593467 798 805 8 -0.18613946838305 2.2464148120955 10.558978641307 19.072036381594
8974	79714390 278 444714493 451593467 798 805 8 1.284300646757 7.2361854813996 32.141925594658 152.33962257194
8975	79714668 280 444714493 451593467 798 805 8 2.1904345903546 9.7883561815601 53.305582310759 404.91244004106
8976	79714948 279 444714493 451593467 798 805 8 5.5158242374933 14.510228239702 88.441868516496 1055.2221512186
8977	79715227 244 445813098 451593467 799 805 7 7183.3359824565 7246.022732516 50532.116524056 364788229.49848
8978	79715471 245 445813098 451593467 799 805 7 3176.1852255139 3190.7026026053 22282.357219021 70929208.082461
8979	79715716 245 445813098 451593467 799 805 7 3895.5997440219 3908.2566666667 27304.339972855 106503993.8123
8980	79715961 236 445813098 451593467 799 805 7 5102.3682081534 5131.3086689583 35846.186818796 183565004.99593
8981	79716197 248 445813098 451593467 799 805 7 -4.3042652116739 2.4836519465316 5.1263788435836 38.159035400461
8982	79716445 225 445813098 451593467 799 805 7 0.973 5.4505922816174 25.972507942186 120.2510482731
8983	79716670 248 445813098 451593467 799 805 7 -4.4357070008642 2.5946994186379 4.3573310615369 40.895975915498
8984	79716918 225 445813098 451593467 799 805 7 0.973 9.8140674940522 37.032366240234 272.43022969649
8985	79717143 244 445813098 451593467 799 805 7 1.6303546641953 13.102026259387 52.963417966035 507.10198778302
8986	79717387 245 445813098 451593467 799 805 7 1.3153038215591 12.382212174203 54.786369287123 537.30937455078
8987	79717632 244 445813098 451593467 799 805 7 1.4521679432597 12.541399639263 48.196074050409 427.73387880393
8988	79717876 208 446742159 451593467 800 805 6 4634.0879143652 4655.5528882834 27883.220303162 129579344.84998
8989	79718084 209 446742159 451593467 800 805 6 2427.8843051771 2446.2333957845 14610.130708587 35576241.661289
8990	79718293 209 446742159 451593467 800 805 6 4287.4306829364 4313.0490775708 25784.211427513 110804745.02459
8991	79718502 210 446742159 451593467 800 805 6 3053.5214879428 3061.2899862232 18349.658581004 56118372.956089
8992	79718712 210 446742159 451593467 800 805 6 1.3543608062202 2.4577926835511 11.471671595192 22.823160430647
8993	79718922 210 446742159 451593467 800 805 6 2.6320254680132 7.8956428214488 32.748671681188 194.30146505451
8994	79719132 209 446742159 451593467 800 805 6 0.34860458059702 2.5046387899667 11.066908352644 23.926939714703
8995	79719341 210 446742159 451593467 800 805 6 2.9229683150647 7.3119402022875 30.920137227759 173.96755091281
8996	79719551 210 446742159 451593467 800 805 6 1.3904571262421 2.4761417578673 11.089231696003 21.351700644534
8997	79719761 209 446742159 451593467 800 805 6 2.201814301949 8.5134037804029 30.580424906214 177.62747517707
8998	79719970 210 446742159 451593467 800 805 6 6.1979468008831 13.697851075997 64.93086856261 758.97711513386
8999	79720180 198 446742159 451593467 800 805 6 2.6 9.4018581622454 36.216181615565 249.95106019611
9000	79720378 174 447681208 451593467 801 805 5 4447.6546533061 4468.300923012 22281.601487772 99294219.471887
9001	79720552 174 447681208 451593467 801 805 5 5773.548295823 5812.6121877397 28966.487701466 167812487.90434
9002	79720726 175 447681208 451593467 801 805 5 2529.7692095965 2529.9148160535 12649.016248484 31999522.426757
9003	79720901 174 447681208 451593467 801 805 5 2401.1847157191 2401.9491496182 12008.852195458 28842506.648
9004	79721075 167 447681208 451593467 801 805 5 5178.32 5224.1779777537 26005.820178332 135261839.0194
9005	79721242 166 447681208 451593467 801 805 5 4352.771314068 4377.41 21825.027735327 95266740.586585
9006	79721408 168 447681208 451593467 801 805 5 -4.5 1.1320460610326 -6.3524892948675 30.798278497473
9007	79721576 145 447681208 451593467 801 805 5 0.973 3.4997719665221 9.6589917105487 25.587614807234
9008	79721721 175 447681208 451593467 801 805 5 -3.6299921703758 2.4382965537487 3.1718659918696 25.484470559926
9009	79721896 163 447681208 451593467 801 805 5 0.973 5.23069890371 18.230936401876 79.282493456264
9010	79722059 175 447681208 451593467 801 805 5 1.6106371667702 9.1184989123372 28.235288272239 195.27074043493
9011	79722234 174 447681208 451593467 801 805 5 1.9000342403073 9.028932143352 26.769575966545 175.90829694791
9012	79722408 140 448502824 451593467 802 805 4 3129.7885164334 3159.8138554306 12582.738694517 39581836.183438
9013	79722548 140 448502824 451593467 802 805 4 2147.0797840753 2165.4659869992 8624.2438507754 18594593.190347
9014	79722688 139 448502824 451593467 802 805 4 7622.6314990285 7632.2092585829 30512.722648705 232756614.41717
9015	79722827 140 448502824 451593467 802 805 4 3152.2934826919 3154.7452447042 12614.855939103 39783651.100642
9016	79722967 139 448502824 451593467 802 805 4 1.3689070740249 2.4229950416368 7.5078617455671 14.82319851327
9017	79723106 138 448502824 451593467 802 805 4 3.2495017080816 5.0543590040665 17.353876214328 77.593878867726
9018	79723244 139 448502824 451593467 802 805 4 1.3635097056394 2.3057733000955 7.1288979030447 13.330017148482
9019	79723383 140 448502824 451593467 802 805 4 2.3430639624018 6.0115920099001 16.753263833287 77.065856017901
9020	79723523 138 448502824 451593467 802 805 4 8.754926758758 12.508461739601 44.933279131912 513.33264153443
9021	79723661 148 448502824 451593467 802 805 4 0.0018607148240955 0.66313626320765 0.77743447569111 0.44975915968287
9022	79723809 139 448502824 451593467 802 805 4 12.572204411292 13.454039055394 52.095035309065 679.01540256238
9023	79723948 104 449992233 451593467 803 805 3 6465.858718058 6489.6848191208 19433.450600466 125886617.93401
9024	79724052 105 449992233 451593467 803 805 3 4148.7702763553 4163.4537551397 12468.252495438 51819214.570263
9025	79724157 105 449992233 451593467 803 805 3 5498.2314212874 5502.2817723602 16500.326491307 90753599.773591
9026	79724262 104 449992233 451593467 803 805 3 2415.4928853034 2419.946736775 7253.646894229 17538474.498861
9027	79724366 108 449992233 451593467 803 805 3 -2.8673890798615 0.46088694466744 -3.2926480361756 9.2195914689003
9028	79724474 85 449992233 451593467 803 805 3 0.973 3.2835641557311 5.2295641557311 12.675251564802
9029	79724559 112 449992233 451593467 803 805 3 -0.56399375404493 -0.01143427367255 -0.66127554838355 0.32558949402063
9030	79724671 95 449992233 451593467 803 805 3 0.973 1.1103662870884 3.1934509204748 3.4119301847831
9031	79724766 109 449992233 451593467 803 805 3 -0.55309644429945 0.88183464410249 0.14309491205495 1.118011446522
9032	79724875 95 449992233 451593467 803 805 3 0.973 4.8432773186449 7.1538518614916 26.193169842972
9033	79724970 105 449992233 451593467 803 805 3 9.9423801093187 12.843300465463 35.433954697837 423.78012737629
9034	79725075 105 449992233 451593467 803 805 3 1.6808127868222 4.8199733801652 9.8864865824813 37.520242313322
9035	79725180 70 450749544 451593467 804 805 2 9508.5983063328 9511.4291215498 19020.027427883 180880725.68546
9036	79725250 70 450749544 451593467 804 805 2 5575.6888365243 5589.0332472207 11164.722083745 62325598.64028
9037	79725320 70 450749544 451593467 804 805 2 5629.7508044003 5631.3047759747 11261.055580375 63405687.599561
9038	79725390 70 450749544 451593467 804 805 2 2259.3262995784 2260.7959138812 4520.1222134595 10215753.492188
9039	79725460 71 450749544 451593467 804 805 2 -2.9009203561443 0.1950263424078 -2.7058940137365 8.4533741869255
9040	79725531 60 450749544 451593467 804 805 2 0.973 2.5289185711037 3.5019185711037 7.3421581392733
9041	79725591 70 450749544 451593467 804 805 2 1.4342729646713 1.7048876286717 3.139160593343 4.9637807635847
9042	79725661 70 450749544 451593467 804 805 2 2.6680209677889 3.0189309067841 5.686951874573 16.232279704498
9043	79725731 70 450749544 451593467 804 805 2 13.834365443732 14.152387853232 27.986753296964 391.67974917903
9044	79725801 70 450749544 451593467 804 805 2 2.3510868591955 3.6688065728405 6.019893432036 18.9877510884
9045	79725871 35 451593467 451593467 805 805 1 3333.0868440213 3333.0868440213 3333.0868440213 11109467.909788
9046	79725906 35 451593467 451593467 805 805 1 2338.6379717547 2338.6379717547 2338.6379717547 5469227.5629331
9047	79725941 35 451593467 451593467 805 805 1 4883.3625907716 4883.3625907716 4883.3625907716 23847230.192947
9048	79725976 35 451593467 451593467 805 805 1 3365.7561365356 3365.7561365356 3365.7561365356 11328314.370627
9049	79726011 35 451593467 451593467 805 805 1 6484.4620003131 6484.4620003131 6484.4620003131 42048247.433504
9050	79726046 35 451593467 451593467 805 805 1 4582.1914344731 4582.1914344731 4582.1914344731 20996478.342159
9051	79726081 36 451593467 451593467 805 805 1 0.31802240950055 0.31802240950055 0.31802240950055 0.10113825294454
9052	79726117 35 451593467 451593467 805 805 1 3.1392539186738 3.1392539186738 3.1392539186738 9.854915165909
9053	79726152 35 451593467 451593467 805 805 1 1.3177197136451 1.3177197136451 1.3177197136451 1.7363852437288
9054	79726187 35 451593467 451593467 805 805 1 2.4566497014738 2.4566497014738 2.4566497014738 6.0351277557515
9055	79726222 34 451593467 451593467 805 805 1 13.64175679438 13.64175679438 13.64175679438 186.09752843702
9056	79726256 34 451593467 451593467 805 805 1 2.138940850785 2.138940850785 2.138940850785 4.5750679631569

