file 107973421 1692809677                                       
version 3
run General-0-20230823-08:01:53-1145
attr configname General
attr datetime 20230823-08:01:53
attr datetimef 20230823-080153
attr experiment General
attr inifile omnetpp.ini
attr iterationvars "$pathlosstype=\"NakagamiFading\""
attr iterationvarsd pathlosstype=NakagamiFading
attr iterationvarsf pathlosstype=NakagamiFading-
attr measurement "$pathlosstype=\"NakagamiFading\""
attr network Scenario
attr processid 1145
attr repetition 0
attr replication #0
attr resultdir results
attr runnumber 0
attr seedset 0
itervar pathlosstype "\"NakagamiFading\""
config image-path ../../images:../../../veins/images
config **.scalar-recording true
config **.vector-recording true
config cmdenv-express-mode true
config cmdenv-autoflush true
config cmdenv-status-frequency 1s
config **.cmdenv-log-level info
config image-path ../../images
config network Scenario
config debug-on-errors true
config print-undisposed true
config sim-time-limit 1000s
config **.scalar-recording true
config **.vector-recording true
config *.playgroundSizeX 12500m
config *.playgroundSizeY 7500m
config *.playgroundSizeZ 50m
config *.radioMedium.pathLoss.typename NakagamiFading
config *.annotations.draw true
config *.obstacles.obstacles "xmldoc(\"config.xml\", \"//AnalogueModel[@type='SimpleObstacleShadowing']/obstacles\")"
config *.manager.updateInterval 1s
config *.manager.host "\"localhost\""
config *.manager.port 9999
config *.manager.autoShutdown true
config *.manager.launchConfig "xmldoc(\"sumo.launchd.xml\")"
config *.rsu[*].applType "\"RSUApplication\""
config *.rsu[*].appl.headerLength "80 bit"
config *.rsu[*].appl.sendBeacons false
config *.rsu[*].appl.dataOnSch false
config *.rsu[*].appl.beaconInterval 1s
config *.rsu[*].appl.beaconUserPriority 7
config *.rsu[*].appl.dataUserPriority 5
config *.rsu[*].nic.phy80211p.antennaOffsetZ "0 m"
config *.connectionManager.sendDirect true
config *.connectionManager.maxInterfDist 2600m
config *.connectionManager.drawMaxIntfDist false
config *.**.nic.mac1609_4.useServiceChannel false
config *.**.nic.mac1609_4.txPower 20mW
config *.**.nic.mac1609_4.bitrate 6Mbps
config *.**.nic.phy80211p.minPowerLevel -110dBm
config *.**.nic.phy80211p.useNoiseFloor false
config *.**.nic.phy80211p.noiseFloor -98dBm
config *.**.nic.phy80211p.decider "xmldoc(\"config.xml\")"
config *.**.nic.phy80211p.analogueModels "xmldoc(\"config.xml\")"
config *.**.nic.phy80211p.usePropagationDelay true
config *.**.nic.phy80211p.antenna "xmldoc(\"antenna.xml\", \"/root/Antenna[@id='monopole']\")"
config *.node[*].nic.phy80211p.antennaOffsetY "0 m"
config *.node[*].nic.phy80211p.antennaOffsetZ "1.895 m"
config *.node[*].applType "\"VehicleApplication\""
config *.cloud[*].applType "\"VehicleApplication\""
config *.node[*].appl.headerLength "80 bit"
config *.node[*].appl.sendBeacons false
config *.node[*].appl.dataOnSch false
config *.node[*].appl.beaconInterval 1s
config *.node[*].veinsmobility.x 0
config *.node[*].veinsmobility.y 0
config *.node[*].veinsmobility.z 0
config *.node[*].veinsmobility.setHostSpeed false
config *.node[*0].veinsmobility.accidentCount 1
config *.node[*0].veinsmobility.accidentStart 73s
config *.node[*0].veinsmobility.accidentDuration 50s

vector 0 Scenario.node[0].veinsmobility posx ETV
vector 1 Scenario.node[0].veinsmobility posy ETV
vector 2 Scenario.node[1].veinsmobility posx ETV
vector 3 Scenario.node[1].veinsmobility posy ETV
vector 4 Scenario.node[2].veinsmobility posx ETV
vector 5 Scenario.node[2].veinsmobility posy ETV
vector 6 Scenario.node[0].veinsmobility speed ETV
vector 7 Scenario.node[3].veinsmobility posx ETV
vector 8 Scenario.node[3].veinsmobility posy ETV
vector 9 Scenario.node[4].veinsmobility posx ETV
vector 10 Scenario.node[4].veinsmobility posy ETV
vector 11 Scenario.node[0].veinsmobility acceleration ETV
vector 12 Scenario.node[0].veinsmobility co2emission ETV
vector 13 Scenario.node[1].veinsmobility speed ETV
vector 14 Scenario.node[2].veinsmobility speed ETV
vector 15 Scenario.node[5].veinsmobility posx ETV
vector 16 Scenario.node[5].veinsmobility posy ETV
vector 17 Scenario.node[6].veinsmobility posx ETV
vector 18 Scenario.node[6].veinsmobility posy ETV
vector 19 Scenario.node[1].veinsmobility acceleration ETV
vector 20 Scenario.node[1].veinsmobility co2emission ETV
vector 21 Scenario.node[2].veinsmobility acceleration ETV
vector 22 Scenario.node[2].veinsmobility co2emission ETV
vector 23 Scenario.node[3].veinsmobility speed ETV
vector 24 Scenario.node[4].veinsmobility speed ETV
vector 25 Scenario.node[7].veinsmobility posx ETV
vector 26 Scenario.node[7].veinsmobility posy ETV
vector 27 Scenario.node[8].veinsmobility posx ETV
vector 28 Scenario.node[8].veinsmobility posy ETV
vector 29 Scenario.node[9].veinsmobility posx ETV
vector 30 Scenario.node[9].veinsmobility posy ETV
vector 31 Scenario.node[3].veinsmobility acceleration ETV
vector 32 Scenario.node[3].veinsmobility co2emission ETV
vector 33 Scenario.node[4].veinsmobility acceleration ETV
vector 34 Scenario.node[4].veinsmobility co2emission ETV
vector 35 Scenario.node[5].veinsmobility speed ETV
vector 36 Scenario.node[6].veinsmobility speed ETV
vector 37 Scenario.node[10].veinsmobility posx ETV
vector 38 Scenario.node[10].veinsmobility posy ETV
vector 39 Scenario.node[11].veinsmobility posx ETV
vector 40 Scenario.node[11].veinsmobility posy ETV
vector 41 Scenario.node[5].veinsmobility acceleration ETV
vector 42 Scenario.node[5].veinsmobility co2emission ETV
vector 43 Scenario.node[6].veinsmobility acceleration ETV
vector 44 Scenario.node[6].veinsmobility co2emission ETV
vector 45 Scenario.node[7].veinsmobility speed ETV
vector 46 Scenario.node[8].veinsmobility speed ETV
vector 47 Scenario.node[9].veinsmobility speed ETV
vector 48 Scenario.node[12].veinsmobility posx ETV
vector 49 Scenario.node[12].veinsmobility posy ETV
vector 50 Scenario.node[13].veinsmobility posx ETV
vector 51 Scenario.node[13].veinsmobility posy ETV
vector 52 Scenario.node[7].veinsmobility acceleration ETV
vector 53 Scenario.node[7].veinsmobility co2emission ETV
vector 54 Scenario.node[8].veinsmobility acceleration ETV
vector 55 Scenario.node[8].veinsmobility co2emission ETV
vector 56 Scenario.node[9].veinsmobility acceleration ETV
vector 57 Scenario.node[9].veinsmobility co2emission ETV
vector 58 Scenario.node[10].veinsmobility speed ETV
vector 59 Scenario.node[11].veinsmobility speed ETV
vector 60 Scenario.node[14].veinsmobility posx ETV
vector 61 Scenario.node[14].veinsmobility posy ETV
vector 62 Scenario.node[15].veinsmobility posx ETV
vector 63 Scenario.node[15].veinsmobility posy ETV
vector 64 Scenario.node[10].veinsmobility acceleration ETV
vector 65 Scenario.node[10].veinsmobility co2emission ETV
vector 66 Scenario.node[11].veinsmobility acceleration ETV
vector 67 Scenario.node[11].veinsmobility co2emission ETV
vector 68 Scenario.node[12].veinsmobility speed ETV
vector 69 Scenario.node[13].veinsmobility speed ETV
vector 70 Scenario.node[16].veinsmobility posx ETV
vector 71 Scenario.node[16].veinsmobility posy ETV
vector 72 Scenario.node[17].veinsmobility posx ETV
vector 73 Scenario.node[17].veinsmobility posy ETV
vector 74 Scenario.node[18].veinsmobility posx ETV
vector 75 Scenario.node[18].veinsmobility posy ETV
vector 76 Scenario.node[12].veinsmobility acceleration ETV
vector 77 Scenario.node[12].veinsmobility co2emission ETV
vector 78 Scenario.node[13].veinsmobility acceleration ETV
vector 79 Scenario.node[13].veinsmobility co2emission ETV
vector 80 Scenario.node[14].veinsmobility speed ETV
vector 81 Scenario.node[15].veinsmobility speed ETV
vector 82 Scenario.node[19].veinsmobility posx ETV
vector 83 Scenario.node[19].veinsmobility posy ETV
vector 84 Scenario.node[20].veinsmobility posx ETV
vector 85 Scenario.node[20].veinsmobility posy ETV
vector 86 Scenario.node[14].veinsmobility acceleration ETV
vector 87 Scenario.node[14].veinsmobility co2emission ETV
vector 88 Scenario.node[15].veinsmobility acceleration ETV
vector 89 Scenario.node[15].veinsmobility co2emission ETV
vector 90 Scenario.node[16].veinsmobility speed ETV
vector 91 Scenario.node[17].veinsmobility speed ETV
vector 92 Scenario.node[18].veinsmobility speed ETV
vector 93 Scenario.node[21].veinsmobility posx ETV
vector 94 Scenario.node[21].veinsmobility posy ETV
vector 95 Scenario.node[22].veinsmobility posx ETV
vector 96 Scenario.node[22].veinsmobility posy ETV
vector 97 Scenario.node[16].veinsmobility acceleration ETV
vector 98 Scenario.node[16].veinsmobility co2emission ETV
vector 99 Scenario.node[17].veinsmobility acceleration ETV
vector 100 Scenario.node[17].veinsmobility co2emission ETV
vector 101 Scenario.node[18].veinsmobility acceleration ETV
vector 102 Scenario.node[18].veinsmobility co2emission ETV
vector 103 Scenario.node[19].veinsmobility speed ETV
vector 104 Scenario.node[20].veinsmobility speed ETV
vector 105 Scenario.node[23].veinsmobility posx ETV
vector 106 Scenario.node[23].veinsmobility posy ETV
vector 107 Scenario.node[24].veinsmobility posx ETV
vector 108 Scenario.node[24].veinsmobility posy ETV
vector 109 Scenario.node[25].veinsmobility posx ETV
vector 110 Scenario.node[25].veinsmobility posy ETV
vector 111 Scenario.node[19].veinsmobility acceleration ETV
vector 112 Scenario.node[19].veinsmobility co2emission ETV
vector 113 Scenario.node[20].veinsmobility acceleration ETV
vector 114 Scenario.node[20].veinsmobility co2emission ETV
vector 115 Scenario.node[21].veinsmobility speed ETV
vector 116 Scenario.node[22].veinsmobility speed ETV
vector 117 Scenario.node[26].veinsmobility posx ETV
vector 118 Scenario.node[26].veinsmobility posy ETV
vector 119 Scenario.node[27].veinsmobility posx ETV
vector 120 Scenario.node[27].veinsmobility posy ETV
vector 121 Scenario.node[21].veinsmobility acceleration ETV
vector 122 Scenario.node[21].veinsmobility co2emission ETV
vector 123 Scenario.node[22].veinsmobility acceleration ETV
vector 124 Scenario.node[22].veinsmobility co2emission ETV
vector 125 Scenario.node[23].veinsmobility speed ETV
vector 126 Scenario.node[24].veinsmobility speed ETV
vector 127 Scenario.node[25].veinsmobility speed ETV
vector 128 Scenario.node[28].veinsmobility posx ETV
vector 129 Scenario.node[28].veinsmobility posy ETV
vector 130 Scenario.node[29].veinsmobility posx ETV
vector 131 Scenario.node[29].veinsmobility posy ETV
vector 132 Scenario.node[23].veinsmobility acceleration ETV
vector 133 Scenario.node[23].veinsmobility co2emission ETV
vector 134 Scenario.node[24].veinsmobility acceleration ETV
vector 135 Scenario.node[24].veinsmobility co2emission ETV
vector 136 Scenario.node[25].veinsmobility acceleration ETV
vector 137 Scenario.node[25].veinsmobility co2emission ETV
vector 138 Scenario.node[26].veinsmobility speed ETV
vector 139 Scenario.node[27].veinsmobility speed ETV
vector 140 Scenario.node[30].veinsmobility posx ETV
vector 141 Scenario.node[30].veinsmobility posy ETV
vector 142 Scenario.node[31].veinsmobility posx ETV
vector 143 Scenario.node[31].veinsmobility posy ETV
vector 144 Scenario.node[26].veinsmobility acceleration ETV
vector 145 Scenario.node[26].veinsmobility co2emission ETV
vector 146 Scenario.node[27].veinsmobility acceleration ETV
vector 147 Scenario.node[27].veinsmobility co2emission ETV
vector 148 Scenario.node[28].veinsmobility speed ETV
vector 149 Scenario.node[29].veinsmobility speed ETV
vector 150 Scenario.node[32].veinsmobility posx ETV
vector 151 Scenario.node[32].veinsmobility posy ETV
vector 152 Scenario.node[33].veinsmobility posx ETV
vector 153 Scenario.node[33].veinsmobility posy ETV
vector 154 Scenario.node[34].veinsmobility posx ETV
vector 155 Scenario.node[34].veinsmobility posy ETV
vector 156 Scenario.node[28].veinsmobility acceleration ETV
vector 157 Scenario.node[28].veinsmobility co2emission ETV
vector 158 Scenario.node[29].veinsmobility acceleration ETV
vector 159 Scenario.node[29].veinsmobility co2emission ETV
vector 160 Scenario.node[30].veinsmobility speed ETV
vector 161 Scenario.node[31].veinsmobility speed ETV
vector 162 Scenario.node[35].veinsmobility posx ETV
vector 163 Scenario.node[35].veinsmobility posy ETV
vector 164 Scenario.node[36].veinsmobility posx ETV
vector 165 Scenario.node[36].veinsmobility posy ETV
vector 166 Scenario.node[30].veinsmobility acceleration ETV
vector 167 Scenario.node[30].veinsmobility co2emission ETV
vector 168 Scenario.node[31].veinsmobility acceleration ETV
vector 169 Scenario.node[31].veinsmobility co2emission ETV
vector 170 Scenario.node[32].veinsmobility speed ETV
vector 171 Scenario.node[33].veinsmobility speed ETV
vector 172 Scenario.node[34].veinsmobility speed ETV
vector 173 Scenario.node[37].veinsmobility posx ETV
vector 174 Scenario.node[37].veinsmobility posy ETV
vector 175 Scenario.node[38].veinsmobility posx ETV
vector 176 Scenario.node[38].veinsmobility posy ETV
vector 177 Scenario.node[32].veinsmobility acceleration ETV
vector 178 Scenario.node[32].veinsmobility co2emission ETV
vector 179 Scenario.node[33].veinsmobility acceleration ETV
vector 180 Scenario.node[33].veinsmobility co2emission ETV
vector 181 Scenario.node[34].veinsmobility acceleration ETV
vector 182 Scenario.node[34].veinsmobility co2emission ETV
vector 183 Scenario.node[35].veinsmobility speed ETV
vector 184 Scenario.node[36].veinsmobility speed ETV
vector 185 Scenario.node[39].veinsmobility posx ETV
vector 186 Scenario.node[39].veinsmobility posy ETV
vector 187 Scenario.node[40].veinsmobility posx ETV
vector 188 Scenario.node[40].veinsmobility posy ETV
vector 189 Scenario.node[35].veinsmobility acceleration ETV
vector 190 Scenario.node[35].veinsmobility co2emission ETV
vector 191 Scenario.node[36].veinsmobility acceleration ETV
vector 192 Scenario.node[36].veinsmobility co2emission ETV
vector 193 Scenario.node[37].veinsmobility speed ETV
vector 194 Scenario.node[38].veinsmobility speed ETV
vector 195 Scenario.node[41].veinsmobility posx ETV
vector 196 Scenario.node[41].veinsmobility posy ETV
vector 197 Scenario.node[42].veinsmobility posx ETV
vector 198 Scenario.node[42].veinsmobility posy ETV
vector 199 Scenario.node[43].veinsmobility posx ETV
vector 200 Scenario.node[43].veinsmobility posy ETV
vector 201 Scenario.node[37].veinsmobility acceleration ETV
vector 202 Scenario.node[37].veinsmobility co2emission ETV
vector 203 Scenario.node[38].veinsmobility acceleration ETV
vector 204 Scenario.node[38].veinsmobility co2emission ETV
vector 205 Scenario.node[39].veinsmobility speed ETV
vector 206 Scenario.node[40].veinsmobility speed ETV
vector 207 Scenario.node[44].veinsmobility posx ETV
vector 208 Scenario.node[44].veinsmobility posy ETV
vector 209 Scenario.node[45].veinsmobility posx ETV
vector 210 Scenario.node[45].veinsmobility posy ETV
vector 211 Scenario.node[39].veinsmobility acceleration ETV
vector 212 Scenario.node[39].veinsmobility co2emission ETV
vector 213 Scenario.node[40].veinsmobility acceleration ETV
vector 214 Scenario.node[40].veinsmobility co2emission ETV
vector 215 Scenario.node[41].veinsmobility speed ETV
vector 216 Scenario.node[42].veinsmobility speed ETV
vector 217 Scenario.node[43].veinsmobility speed ETV
vector 218 Scenario.node[46].veinsmobility posx ETV
vector 219 Scenario.node[46].veinsmobility posy ETV
vector 220 Scenario.node[47].veinsmobility posx ETV
vector 221 Scenario.node[47].veinsmobility posy ETV
vector 222 Scenario.node[41].veinsmobility acceleration ETV
vector 223 Scenario.node[41].veinsmobility co2emission ETV
vector 224 Scenario.node[42].veinsmobility acceleration ETV
vector 225 Scenario.node[42].veinsmobility co2emission ETV
vector 226 Scenario.node[43].veinsmobility acceleration ETV
vector 227 Scenario.node[43].veinsmobility co2emission ETV
vector 228 Scenario.node[44].veinsmobility speed ETV
vector 229 Scenario.node[45].veinsmobility speed ETV
vector 230 Scenario.node[48].veinsmobility posx ETV
vector 231 Scenario.node[48].veinsmobility posy ETV
vector 232 Scenario.node[49].veinsmobility posx ETV
vector 233 Scenario.node[49].veinsmobility posy ETV
vector 234 Scenario.node[50].veinsmobility posx ETV
vector 235 Scenario.node[50].veinsmobility posy ETV
vector 236 Scenario.node[44].veinsmobility acceleration ETV
vector 237 Scenario.node[44].veinsmobility co2emission ETV
vector 238 Scenario.node[45].veinsmobility acceleration ETV
vector 239 Scenario.node[45].veinsmobility co2emission ETV
vector 240 Scenario.node[46].veinsmobility speed ETV
vector 241 Scenario.node[47].veinsmobility speed ETV
vector 242 Scenario.node[51].veinsmobility posx ETV
vector 243 Scenario.node[51].veinsmobility posy ETV
vector 244 Scenario.node[52].veinsmobility posx ETV
vector 245 Scenario.node[52].veinsmobility posy ETV
vector 246 Scenario.node[46].veinsmobility acceleration ETV
vector 247 Scenario.node[46].veinsmobility co2emission ETV
vector 248 Scenario.node[47].veinsmobility acceleration ETV
vector 249 Scenario.node[47].veinsmobility co2emission ETV
vector 250 Scenario.node[48].veinsmobility speed ETV
vector 251 Scenario.node[49].veinsmobility speed ETV
vector 252 Scenario.node[50].veinsmobility speed ETV
vector 253 Scenario.node[53].veinsmobility posx ETV
vector 254 Scenario.node[53].veinsmobility posy ETV
vector 255 Scenario.node[54].veinsmobility posx ETV
vector 256 Scenario.node[54].veinsmobility posy ETV
vector 257 Scenario.node[48].veinsmobility acceleration ETV
vector 258 Scenario.node[48].veinsmobility co2emission ETV
vector 259 Scenario.node[49].veinsmobility acceleration ETV
vector 260 Scenario.node[49].veinsmobility co2emission ETV
vector 261 Scenario.node[50].veinsmobility acceleration ETV
vector 262 Scenario.node[50].veinsmobility co2emission ETV
vector 263 Scenario.node[51].veinsmobility speed ETV
vector 264 Scenario.node[52].veinsmobility speed ETV
vector 265 Scenario.node[55].veinsmobility posx ETV
vector 266 Scenario.node[55].veinsmobility posy ETV
vector 267 Scenario.node[56].veinsmobility posx ETV
vector 268 Scenario.node[56].veinsmobility posy ETV
vector 269 Scenario.node[51].veinsmobility acceleration ETV
vector 270 Scenario.node[51].veinsmobility co2emission ETV
vector 271 Scenario.node[52].veinsmobility acceleration ETV
vector 272 Scenario.node[52].veinsmobility co2emission ETV
vector 273 Scenario.node[53].veinsmobility speed ETV
vector 274 Scenario.node[54].veinsmobility speed ETV
vector 275 Scenario.node[57].veinsmobility posx ETV
vector 276 Scenario.node[57].veinsmobility posy ETV
vector 277 Scenario.node[58].veinsmobility posx ETV
vector 278 Scenario.node[58].veinsmobility posy ETV
vector 279 Scenario.node[59].veinsmobility posx ETV
vector 280 Scenario.node[59].veinsmobility posy ETV
vector 281 Scenario.node[53].veinsmobility acceleration ETV
vector 282 Scenario.node[53].veinsmobility co2emission ETV
vector 283 Scenario.node[54].veinsmobility acceleration ETV
vector 284 Scenario.node[54].veinsmobility co2emission ETV
vector 285 Scenario.node[55].veinsmobility speed ETV
vector 286 Scenario.node[56].veinsmobility speed ETV
vector 287 Scenario.node[60].veinsmobility posx ETV
vector 288 Scenario.node[60].veinsmobility posy ETV
vector 289 Scenario.node[61].veinsmobility posx ETV
vector 290 Scenario.node[61].veinsmobility posy ETV
vector 291 Scenario.node[55].veinsmobility acceleration ETV
vector 292 Scenario.node[55].veinsmobility co2emission ETV
vector 293 Scenario.node[56].veinsmobility acceleration ETV
vector 294 Scenario.node[56].veinsmobility co2emission ETV
vector 295 Scenario.node[57].veinsmobility speed ETV
vector 296 Scenario.node[58].veinsmobility speed ETV
vector 297 Scenario.node[59].veinsmobility speed ETV
vector 298 Scenario.node[62].veinsmobility posx ETV
vector 299 Scenario.node[62].veinsmobility posy ETV
vector 300 Scenario.node[63].veinsmobility posx ETV
vector 301 Scenario.node[63].veinsmobility posy ETV
vector 302 Scenario.node[57].veinsmobility acceleration ETV
vector 303 Scenario.node[57].veinsmobility co2emission ETV
vector 304 Scenario.node[58].veinsmobility acceleration ETV
vector 305 Scenario.node[58].veinsmobility co2emission ETV
vector 306 Scenario.node[59].veinsmobility acceleration ETV
vector 307 Scenario.node[59].veinsmobility co2emission ETV
vector 308 Scenario.node[60].veinsmobility speed ETV
vector 309 Scenario.node[61].veinsmobility speed ETV
vector 310 Scenario.node[64].veinsmobility posx ETV
vector 311 Scenario.node[64].veinsmobility posy ETV
vector 312 Scenario.node[65].veinsmobility posx ETV
vector 313 Scenario.node[65].veinsmobility posy ETV
vector 314 Scenario.node[60].veinsmobility acceleration ETV
vector 315 Scenario.node[60].veinsmobility co2emission ETV
vector 316 Scenario.node[61].veinsmobility acceleration ETV
vector 317 Scenario.node[61].veinsmobility co2emission ETV
vector 318 Scenario.node[62].veinsmobility speed ETV
vector 319 Scenario.node[63].veinsmobility speed ETV
vector 320 Scenario.node[66].veinsmobility posx ETV
vector 321 Scenario.node[66].veinsmobility posy ETV
vector 322 Scenario.node[67].veinsmobility posx ETV
vector 323 Scenario.node[67].veinsmobility posy ETV
vector 324 Scenario.node[68].veinsmobility posx ETV
vector 325 Scenario.node[68].veinsmobility posy ETV
vector 326 Scenario.node[62].veinsmobility acceleration ETV
vector 327 Scenario.node[62].veinsmobility co2emission ETV
vector 328 Scenario.node[63].veinsmobility acceleration ETV
vector 329 Scenario.node[63].veinsmobility co2emission ETV
vector 330 Scenario.node[64].veinsmobility speed ETV
vector 331 Scenario.node[65].veinsmobility speed ETV
vector 332 Scenario.node[69].veinsmobility posx ETV
vector 333 Scenario.node[69].veinsmobility posy ETV
vector 334 Scenario.node[70].veinsmobility posx ETV
vector 335 Scenario.node[70].veinsmobility posy ETV
vector 336 Scenario.node[64].veinsmobility acceleration ETV
vector 337 Scenario.node[64].veinsmobility co2emission ETV
vector 338 Scenario.node[65].veinsmobility acceleration ETV
vector 339 Scenario.node[65].veinsmobility co2emission ETV
vector 340 Scenario.node[66].veinsmobility speed ETV
vector 341 Scenario.node[67].veinsmobility speed ETV
vector 342 Scenario.node[68].veinsmobility speed ETV
vector 343 Scenario.node[71].veinsmobility posx ETV
vector 344 Scenario.node[71].veinsmobility posy ETV
vector 345 Scenario.node[72].veinsmobility posx ETV
vector 346 Scenario.node[72].veinsmobility posy ETV
vector 347 Scenario.node[66].veinsmobility acceleration ETV
vector 348 Scenario.node[66].veinsmobility co2emission ETV
vector 349 Scenario.node[67].veinsmobility acceleration ETV
vector 350 Scenario.node[67].veinsmobility co2emission ETV
vector 351 Scenario.node[68].veinsmobility acceleration ETV
vector 352 Scenario.node[68].veinsmobility co2emission ETV
vector 353 Scenario.node[69].veinsmobility speed ETV
vector 354 Scenario.node[70].veinsmobility speed ETV
vector 355 Scenario.node[73].veinsmobility posx ETV
vector 356 Scenario.node[73].veinsmobility posy ETV
vector 357 Scenario.node[74].veinsmobility posx ETV
vector 358 Scenario.node[74].veinsmobility posy ETV
vector 359 Scenario.node[75].veinsmobility posx ETV
vector 360 Scenario.node[75].veinsmobility posy ETV
vector 361 Scenario.node[69].veinsmobility acceleration ETV
vector 362 Scenario.node[69].veinsmobility co2emission ETV
vector 363 Scenario.node[70].veinsmobility acceleration ETV
vector 364 Scenario.node[70].veinsmobility co2emission ETV
vector 365 Scenario.node[71].veinsmobility speed ETV
vector 366 Scenario.node[72].veinsmobility speed ETV
vector 367 Scenario.node[76].veinsmobility posx ETV
vector 368 Scenario.node[76].veinsmobility posy ETV
vector 369 Scenario.node[77].veinsmobility posx ETV
vector 370 Scenario.node[77].veinsmobility posy ETV
vector 371 Scenario.node[71].veinsmobility acceleration ETV
vector 372 Scenario.node[71].veinsmobility co2emission ETV
vector 373 Scenario.node[72].veinsmobility acceleration ETV
vector 374 Scenario.node[72].veinsmobility co2emission ETV
vector 375 Scenario.node[73].veinsmobility speed ETV
vector 376 Scenario.node[74].veinsmobility speed ETV
vector 377 Scenario.node[75].veinsmobility speed ETV
vector 378 Scenario.node[78].veinsmobility posx ETV
vector 379 Scenario.node[78].veinsmobility posy ETV
vector 380 Scenario.node[73].veinsmobility acceleration ETV
vector 381 Scenario.node[73].veinsmobility co2emission ETV
vector 382 Scenario.node[74].veinsmobility acceleration ETV
vector 383 Scenario.node[74].veinsmobility co2emission ETV
vector 384 Scenario.node[75].veinsmobility acceleration ETV
vector 385 Scenario.node[75].veinsmobility co2emission ETV
vector 386 Scenario.node[76].veinsmobility speed ETV
vector 387 Scenario.node[77].veinsmobility speed ETV
vector 388 Scenario.node[79].veinsmobility posx ETV
vector 389 Scenario.node[79].veinsmobility posy ETV
vector 390 Scenario.node[80].veinsmobility posx ETV
vector 391 Scenario.node[80].veinsmobility posy ETV
vector 392 Scenario.node[76].veinsmobility acceleration ETV
vector 393 Scenario.node[76].veinsmobility co2emission ETV
vector 394 Scenario.node[77].veinsmobility acceleration ETV
vector 395 Scenario.node[77].veinsmobility co2emission ETV
vector 396 Scenario.node[78].veinsmobility speed ETV
vector 397 Scenario.node[81].veinsmobility posx ETV
vector 398 Scenario.node[81].veinsmobility posy ETV
vector 399 Scenario.node[82].veinsmobility posx ETV
vector 400 Scenario.node[82].veinsmobility posy ETV
vector 401 Scenario.node[83].veinsmobility posx ETV
vector 402 Scenario.node[83].veinsmobility posy ETV
vector 403 Scenario.node[78].veinsmobility acceleration ETV
vector 404 Scenario.node[78].veinsmobility co2emission ETV
vector 405 Scenario.node[79].veinsmobility speed ETV
vector 406 Scenario.node[80].veinsmobility speed ETV
vector 407 Scenario.node[84].veinsmobility posx ETV
vector 408 Scenario.node[84].veinsmobility posy ETV
vector 409 Scenario.node[85].veinsmobility posx ETV
vector 410 Scenario.node[85].veinsmobility posy ETV
vector 411 Scenario.node[79].veinsmobility acceleration ETV
vector 412 Scenario.node[79].veinsmobility co2emission ETV
vector 413 Scenario.node[80].veinsmobility acceleration ETV
vector 414 Scenario.node[80].veinsmobility co2emission ETV
vector 415 Scenario.node[81].veinsmobility speed ETV
vector 416 Scenario.node[82].veinsmobility speed ETV
vector 417 Scenario.node[83].veinsmobility speed ETV
vector 418 Scenario.node[86].veinsmobility posx ETV
vector 419 Scenario.node[86].veinsmobility posy ETV
vector 420 Scenario.node[87].veinsmobility posx ETV
vector 421 Scenario.node[87].veinsmobility posy ETV
vector 422 Scenario.node[81].veinsmobility acceleration ETV
vector 423 Scenario.node[81].veinsmobility co2emission ETV
vector 424 Scenario.node[82].veinsmobility acceleration ETV
vector 425 Scenario.node[82].veinsmobility co2emission ETV
vector 426 Scenario.node[83].veinsmobility acceleration ETV
vector 427 Scenario.node[83].veinsmobility co2emission ETV
vector 428 Scenario.node[84].veinsmobility speed ETV
vector 429 Scenario.node[85].veinsmobility speed ETV
vector 430 Scenario.node[88].veinsmobility posx ETV
vector 431 Scenario.node[88].veinsmobility posy ETV
vector 432 Scenario.node[89].veinsmobility posx ETV
vector 433 Scenario.node[89].veinsmobility posy ETV
vector 434 Scenario.node[90].veinsmobility posx ETV
vector 435 Scenario.node[90].veinsmobility posy ETV
vector 436 Scenario.node[84].veinsmobility acceleration ETV
vector 437 Scenario.node[84].veinsmobility co2emission ETV
vector 438 Scenario.node[85].veinsmobility acceleration ETV
vector 439 Scenario.node[85].veinsmobility co2emission ETV
vector 440 Scenario.node[86].veinsmobility speed ETV
vector 441 Scenario.node[87].veinsmobility speed ETV
vector 442 Scenario.node[91].veinsmobility posx ETV
vector 443 Scenario.node[91].veinsmobility posy ETV
vector 444 Scenario.node[92].veinsmobility posx ETV
vector 445 Scenario.node[92].veinsmobility posy ETV
vector 446 Scenario.node[86].veinsmobility acceleration ETV
vector 447 Scenario.node[86].veinsmobility co2emission ETV
vector 448 Scenario.node[87].veinsmobility acceleration ETV
vector 449 Scenario.node[87].veinsmobility co2emission ETV
vector 450 Scenario.node[88].veinsmobility speed ETV
vector 451 Scenario.node[89].veinsmobility speed ETV
vector 452 Scenario.node[90].veinsmobility speed ETV
vector 453 Scenario.node[93].veinsmobility posx ETV
vector 454 Scenario.node[93].veinsmobility posy ETV
vector 455 Scenario.node[94].veinsmobility posx ETV
vector 456 Scenario.node[94].veinsmobility posy ETV
vector 457 Scenario.node[88].veinsmobility acceleration ETV
vector 458 Scenario.node[88].veinsmobility co2emission ETV
vector 459 Scenario.node[89].veinsmobility acceleration ETV
vector 460 Scenario.node[89].veinsmobility co2emission ETV
vector 461 Scenario.node[90].veinsmobility acceleration ETV
vector 462 Scenario.node[90].veinsmobility co2emission ETV
vector 463 Scenario.node[91].veinsmobility speed ETV
vector 464 Scenario.node[92].veinsmobility speed ETV
vector 465 Scenario.node[95].veinsmobility posx ETV
vector 466 Scenario.node[95].veinsmobility posy ETV
vector 467 Scenario.node[96].veinsmobility posx ETV
vector 468 Scenario.node[96].veinsmobility posy ETV
vector 469 Scenario.node[91].veinsmobility acceleration ETV
vector 470 Scenario.node[91].veinsmobility co2emission ETV
vector 471 Scenario.node[92].veinsmobility acceleration ETV
vector 472 Scenario.node[92].veinsmobility co2emission ETV
vector 473 Scenario.node[93].veinsmobility speed ETV
vector 474 Scenario.node[94].veinsmobility speed ETV
vector 475 Scenario.node[97].veinsmobility posx ETV
vector 476 Scenario.node[97].veinsmobility posy ETV
vector 477 Scenario.node[98].veinsmobility posx ETV
vector 478 Scenario.node[98].veinsmobility posy ETV
vector 479 Scenario.node[93].veinsmobility acceleration ETV
vector 480 Scenario.node[93].veinsmobility co2emission ETV
vector 481 Scenario.node[94].veinsmobility acceleration ETV
vector 482 Scenario.node[94].veinsmobility co2emission ETV
vector 483 Scenario.node[95].veinsmobility speed ETV
vector 484 Scenario.node[96].veinsmobility speed ETV
vector 485 Scenario.node[99].veinsmobility posx ETV
vector 486 Scenario.node[99].veinsmobility posy ETV
vector 487 Scenario.node[100].veinsmobility posx ETV
vector 488 Scenario.node[100].veinsmobility posy ETV
vector 489 Scenario.node[95].veinsmobility acceleration ETV
vector 490 Scenario.node[95].veinsmobility co2emission ETV
vector 491 Scenario.node[96].veinsmobility acceleration ETV
vector 492 Scenario.node[96].veinsmobility co2emission ETV
vector 493 Scenario.node[97].veinsmobility speed ETV
vector 494 Scenario.node[98].veinsmobility speed ETV
vector 495 Scenario.node[101].veinsmobility posx ETV
vector 496 Scenario.node[101].veinsmobility posy ETV
vector 497 Scenario.node[102].veinsmobility posx ETV
vector 498 Scenario.node[102].veinsmobility posy ETV
vector 499 Scenario.node[97].veinsmobility acceleration ETV
vector 500 Scenario.node[97].veinsmobility co2emission ETV
vector 501 Scenario.node[98].veinsmobility acceleration ETV
vector 502 Scenario.node[98].veinsmobility co2emission ETV
vector 503 Scenario.node[99].veinsmobility speed ETV
vector 504 Scenario.node[100].veinsmobility speed ETV
vector 505 Scenario.node[103].veinsmobility posx ETV
vector 506 Scenario.node[103].veinsmobility posy ETV
vector 507 Scenario.node[104].veinsmobility posx ETV
vector 508 Scenario.node[104].veinsmobility posy ETV
vector 509 Scenario.node[105].veinsmobility posx ETV
vector 510 Scenario.node[105].veinsmobility posy ETV
vector 511 Scenario.node[99].veinsmobility acceleration ETV
vector 512 Scenario.node[99].veinsmobility co2emission ETV
vector 513 Scenario.node[100].veinsmobility acceleration ETV
vector 514 Scenario.node[100].veinsmobility co2emission ETV
vector 515 Scenario.node[101].veinsmobility speed ETV
vector 516 Scenario.node[102].veinsmobility speed ETV
vector 517 Scenario.node[106].veinsmobility posx ETV
vector 518 Scenario.node[106].veinsmobility posy ETV
vector 519 Scenario.node[107].veinsmobility posx ETV
vector 520 Scenario.node[107].veinsmobility posy ETV
vector 521 Scenario.node[108].veinsmobility posx ETV
vector 522 Scenario.node[108].veinsmobility posy ETV
vector 523 Scenario.node[101].veinsmobility acceleration ETV
vector 524 Scenario.node[101].veinsmobility co2emission ETV
vector 525 Scenario.node[102].veinsmobility acceleration ETV
vector 526 Scenario.node[102].veinsmobility co2emission ETV
vector 527 Scenario.node[103].veinsmobility speed ETV
vector 528 Scenario.node[104].veinsmobility speed ETV
vector 529 Scenario.node[105].veinsmobility speed ETV
vector 530 Scenario.node[109].veinsmobility posx ETV
vector 531 Scenario.node[109].veinsmobility posy ETV
vector 532 Scenario.node[110].veinsmobility posx ETV
vector 533 Scenario.node[110].veinsmobility posy ETV
vector 534 Scenario.node[103].veinsmobility acceleration ETV
vector 535 Scenario.node[103].veinsmobility co2emission ETV
vector 536 Scenario.node[104].veinsmobility acceleration ETV
vector 537 Scenario.node[104].veinsmobility co2emission ETV
vector 538 Scenario.node[105].veinsmobility acceleration ETV
vector 539 Scenario.node[105].veinsmobility co2emission ETV
vector 540 Scenario.node[106].veinsmobility speed ETV
vector 541 Scenario.node[107].veinsmobility speed ETV
vector 542 Scenario.node[108].veinsmobility speed ETV
vector 543 Scenario.node[111].veinsmobility posx ETV
vector 544 Scenario.node[111].veinsmobility posy ETV
vector 545 Scenario.node[112].veinsmobility posx ETV
vector 546 Scenario.node[112].veinsmobility posy ETV
vector 547 Scenario.node[106].veinsmobility acceleration ETV
vector 548 Scenario.node[106].veinsmobility co2emission ETV
vector 549 Scenario.node[107].veinsmobility acceleration ETV
vector 550 Scenario.node[107].veinsmobility co2emission ETV
vector 551 Scenario.node[108].veinsmobility acceleration ETV
vector 552 Scenario.node[108].veinsmobility co2emission ETV
vector 553 Scenario.node[109].veinsmobility speed ETV
vector 554 Scenario.node[110].veinsmobility speed ETV
vector 555 Scenario.node[113].veinsmobility posx ETV
vector 556 Scenario.node[113].veinsmobility posy ETV
vector 557 Scenario.node[114].veinsmobility posx ETV
vector 558 Scenario.node[114].veinsmobility posy ETV
vector 559 Scenario.node[115].veinsmobility posx ETV
vector 560 Scenario.node[115].veinsmobility posy ETV
vector 561 Scenario.node[109].veinsmobility acceleration ETV
vector 562 Scenario.node[109].veinsmobility co2emission ETV
vector 563 Scenario.node[110].veinsmobility acceleration ETV
vector 564 Scenario.node[110].veinsmobility co2emission ETV
vector 565 Scenario.node[111].veinsmobility speed ETV
vector 566 Scenario.node[112].veinsmobility speed ETV
vector 567 Scenario.node[116].veinsmobility posx ETV
vector 568 Scenario.node[116].veinsmobility posy ETV
vector 569 Scenario.node[117].veinsmobility posx ETV
vector 570 Scenario.node[117].veinsmobility posy ETV
vector 571 Scenario.node[111].veinsmobility acceleration ETV
vector 572 Scenario.node[111].veinsmobility co2emission ETV
vector 573 Scenario.node[112].veinsmobility acceleration ETV
vector 574 Scenario.node[112].veinsmobility co2emission ETV
vector 575 Scenario.node[113].veinsmobility speed ETV
vector 576 Scenario.node[114].veinsmobility speed ETV
vector 577 Scenario.node[115].veinsmobility speed ETV
vector 578 Scenario.node[118].veinsmobility posx ETV
vector 579 Scenario.node[118].veinsmobility posy ETV
vector 580 Scenario.node[119].veinsmobility posx ETV
vector 581 Scenario.node[119].veinsmobility posy ETV
vector 582 Scenario.node[113].veinsmobility acceleration ETV
vector 583 Scenario.node[113].veinsmobility co2emission ETV
vector 584 Scenario.node[114].veinsmobility acceleration ETV
vector 585 Scenario.node[114].veinsmobility co2emission ETV
vector 586 Scenario.node[115].veinsmobility acceleration ETV
vector 587 Scenario.node[115].veinsmobility co2emission ETV
vector 588 Scenario.node[116].veinsmobility speed ETV
vector 589 Scenario.node[117].veinsmobility speed ETV
vector 590 Scenario.node[120].veinsmobility posx ETV
vector 591 Scenario.node[120].veinsmobility posy ETV
vector 592 Scenario.node[121].veinsmobility posx ETV
vector 593 Scenario.node[121].veinsmobility posy ETV
vector 594 Scenario.node[116].veinsmobility acceleration ETV
vector 595 Scenario.node[116].veinsmobility co2emission ETV
vector 596 Scenario.node[117].veinsmobility acceleration ETV
vector 597 Scenario.node[117].veinsmobility co2emission ETV
vector 598 Scenario.node[118].veinsmobility speed ETV
vector 599 Scenario.node[119].veinsmobility speed ETV
vector 600 Scenario.node[122].veinsmobility posx ETV
vector 601 Scenario.node[122].veinsmobility posy ETV
vector 602 Scenario.node[123].veinsmobility posx ETV
vector 603 Scenario.node[123].veinsmobility posy ETV
vector 604 Scenario.node[124].veinsmobility posx ETV
vector 605 Scenario.node[124].veinsmobility posy ETV
vector 606 Scenario.node[118].veinsmobility acceleration ETV
vector 607 Scenario.node[118].veinsmobility co2emission ETV
vector 608 Scenario.node[119].veinsmobility acceleration ETV
vector 609 Scenario.node[119].veinsmobility co2emission ETV
vector 610 Scenario.node[120].veinsmobility speed ETV
vector 611 Scenario.node[121].veinsmobility speed ETV
vector 612 Scenario.node[125].veinsmobility posx ETV
vector 613 Scenario.node[125].veinsmobility posy ETV
vector 614 Scenario.node[126].veinsmobility posx ETV
vector 615 Scenario.node[126].veinsmobility posy ETV
vector 616 Scenario.node[120].veinsmobility acceleration ETV
vector 617 Scenario.node[120].veinsmobility co2emission ETV
vector 618 Scenario.node[121].veinsmobility acceleration ETV
vector 619 Scenario.node[121].veinsmobility co2emission ETV
vector 620 Scenario.node[122].veinsmobility speed ETV
vector 621 Scenario.node[123].veinsmobility speed ETV
vector 622 Scenario.node[124].veinsmobility speed ETV
vector 623 Scenario.node[127].veinsmobility posx ETV
vector 624 Scenario.node[127].veinsmobility posy ETV
vector 625 Scenario.node[128].veinsmobility posx ETV
vector 626 Scenario.node[128].veinsmobility posy ETV
vector 627 Scenario.node[122].veinsmobility acceleration ETV
vector 628 Scenario.node[122].veinsmobility co2emission ETV
vector 629 Scenario.node[123].veinsmobility acceleration ETV
vector 630 Scenario.node[123].veinsmobility co2emission ETV
vector 631 Scenario.node[124].veinsmobility acceleration ETV
vector 632 Scenario.node[124].veinsmobility co2emission ETV
vector 633 Scenario.node[125].veinsmobility speed ETV
vector 634 Scenario.node[126].veinsmobility speed ETV
vector 635 Scenario.node[129].veinsmobility posx ETV
vector 636 Scenario.node[129].veinsmobility posy ETV
vector 637 Scenario.node[130].veinsmobility posx ETV
vector 638 Scenario.node[130].veinsmobility posy ETV
vector 639 Scenario.node[125].veinsmobility acceleration ETV
vector 640 Scenario.node[125].veinsmobility co2emission ETV
vector 641 Scenario.node[126].veinsmobility acceleration ETV
vector 642 Scenario.node[126].veinsmobility co2emission ETV
vector 643 Scenario.node[127].veinsmobility speed ETV
vector 644 Scenario.node[128].veinsmobility speed ETV
vector 645 Scenario.node[131].veinsmobility posx ETV
vector 646 Scenario.node[131].veinsmobility posy ETV
vector 647 Scenario.node[132].veinsmobility posx ETV
vector 648 Scenario.node[132].veinsmobility posy ETV
vector 649 Scenario.node[133].veinsmobility posx ETV
vector 650 Scenario.node[133].veinsmobility posy ETV
vector 651 Scenario.node[127].veinsmobility acceleration ETV
vector 652 Scenario.node[127].veinsmobility co2emission ETV
vector 653 Scenario.node[128].veinsmobility acceleration ETV
vector 654 Scenario.node[128].veinsmobility co2emission ETV
vector 655 Scenario.node[129].veinsmobility speed ETV
vector 656 Scenario.node[130].veinsmobility speed ETV
vector 657 Scenario.node[134].veinsmobility posx ETV
vector 658 Scenario.node[134].veinsmobility posy ETV
vector 659 Scenario.node[129].veinsmobility acceleration ETV
vector 660 Scenario.node[129].veinsmobility co2emission ETV
vector 661 Scenario.node[130].veinsmobility acceleration ETV
vector 662 Scenario.node[130].veinsmobility co2emission ETV
vector 663 Scenario.node[131].veinsmobility speed ETV
vector 664 Scenario.node[132].veinsmobility speed ETV
vector 665 Scenario.node[133].veinsmobility speed ETV
vector 666 Scenario.node[135].veinsmobility posx ETV
vector 667 Scenario.node[135].veinsmobility posy ETV
vector 668 Scenario.node[136].veinsmobility posx ETV
vector 669 Scenario.node[136].veinsmobility posy ETV
vector 670 Scenario.node[131].veinsmobility acceleration ETV
vector 671 Scenario.node[131].veinsmobility co2emission ETV
vector 672 Scenario.node[132].veinsmobility acceleration ETV
vector 673 Scenario.node[132].veinsmobility co2emission ETV
vector 674 Scenario.node[133].veinsmobility acceleration ETV
vector 675 Scenario.node[133].veinsmobility co2emission ETV
vector 676 Scenario.node[134].veinsmobility speed ETV
vector 677 Scenario.node[137].veinsmobility posx ETV
vector 678 Scenario.node[137].veinsmobility posy ETV
vector 679 Scenario.node[138].veinsmobility posx ETV
vector 680 Scenario.node[138].veinsmobility posy ETV
vector 681 Scenario.node[134].veinsmobility acceleration ETV
vector 682 Scenario.node[134].veinsmobility co2emission ETV
vector 683 Scenario.node[135].veinsmobility speed ETV
vector 684 Scenario.node[136].veinsmobility speed ETV
vector 685 Scenario.node[139].veinsmobility posx ETV
vector 686 Scenario.node[139].veinsmobility posy ETV
vector 687 Scenario.node[140].veinsmobility posx ETV
vector 688 Scenario.node[140].veinsmobility posy ETV
vector 689 Scenario.node[141].veinsmobility posx ETV
vector 690 Scenario.node[141].veinsmobility posy ETV
vector 691 Scenario.node[135].veinsmobility acceleration ETV
vector 692 Scenario.node[135].veinsmobility co2emission ETV
vector 693 Scenario.node[136].veinsmobility acceleration ETV
vector 694 Scenario.node[136].veinsmobility co2emission ETV
vector 695 Scenario.node[137].veinsmobility speed ETV
vector 696 Scenario.node[138].veinsmobility speed ETV
vector 697 Scenario.node[142].veinsmobility posx ETV
vector 698 Scenario.node[142].veinsmobility posy ETV
vector 699 Scenario.node[143].veinsmobility posx ETV
vector 700 Scenario.node[143].veinsmobility posy ETV
vector 701 Scenario.node[137].veinsmobility acceleration ETV
vector 702 Scenario.node[137].veinsmobility co2emission ETV
vector 703 Scenario.node[138].veinsmobility acceleration ETV
vector 704 Scenario.node[138].veinsmobility co2emission ETV
vector 705 Scenario.node[139].veinsmobility speed ETV
vector 706 Scenario.node[140].veinsmobility speed ETV
vector 707 Scenario.node[141].veinsmobility speed ETV
vector 708 Scenario.node[144].veinsmobility posx ETV
vector 709 Scenario.node[144].veinsmobility posy ETV
vector 710 Scenario.node[145].veinsmobility posx ETV
vector 711 Scenario.node[145].veinsmobility posy ETV
vector 712 Scenario.node[139].veinsmobility acceleration ETV
vector 713 Scenario.node[139].veinsmobility co2emission ETV
vector 714 Scenario.node[140].veinsmobility acceleration ETV
vector 715 Scenario.node[140].veinsmobility co2emission ETV
vector 716 Scenario.node[141].veinsmobility acceleration ETV
vector 717 Scenario.node[141].veinsmobility co2emission ETV
vector 718 Scenario.node[142].veinsmobility speed ETV
vector 719 Scenario.node[143].veinsmobility speed ETV
vector 720 Scenario.node[146].veinsmobility posx ETV
vector 721 Scenario.node[146].veinsmobility posy ETV
vector 722 Scenario.node[147].veinsmobility posx ETV
vector 723 Scenario.node[147].veinsmobility posy ETV
vector 724 Scenario.node[148].veinsmobility posx ETV
vector 725 Scenario.node[148].veinsmobility posy ETV
vector 726 Scenario.node[142].veinsmobility acceleration ETV
vector 727 Scenario.node[142].veinsmobility co2emission ETV
vector 728 Scenario.node[143].veinsmobility acceleration ETV
vector 729 Scenario.node[143].veinsmobility co2emission ETV
vector 730 Scenario.node[144].veinsmobility speed ETV
vector 731 Scenario.node[145].veinsmobility speed ETV
12	43638 1605 160 553177 3 67 65 0.973 10.954090822367 206.16508959913 1064.7113467867
11	45243 1870 160 553177 3 67 65 -4.5 2.5533435415709 -1.0677612168714 173.71953917703
6	47113 1785 47 553177 2 67 66 3.7178716257677 15.493526366323 846.16628815856 11498.248055659
1	48898 1805 2 553177 1 67 67 3048.9989403064 3178.3240344357 207723.57558056 644086307.67112
0	50703 1808 2 553177 1 67 67 3009.7331046968 3629.8204743811 224464.505856 754521657.67077
vector 732 Scenario.node[149].veinsmobility posx ETV
vector 733 Scenario.node[149].veinsmobility posy ETV
vector 734 Scenario.node[150].veinsmobility posx ETV
vector 735 Scenario.node[150].veinsmobility posy ETV
vector 736 Scenario.node[144].veinsmobility acceleration ETV
vector 737 Scenario.node[144].veinsmobility co2emission ETV
vector 738 Scenario.node[145].veinsmobility acceleration ETV
vector 739 Scenario.node[145].veinsmobility co2emission ETV
vector 740 Scenario.node[146].veinsmobility speed ETV
vector 741 Scenario.node[147].veinsmobility speed ETV
vector 742 Scenario.node[148].veinsmobility speed ETV
77	53127 1498 3314 576868 9 68 60 0.973 12.509436427066 217.88968401311 1303.7593939967
76	54625 1712 3314 576868 9 68 60 -4.5 2.5648112070514 10.482084869046 207.9225139943
68	56337 1726 2465 576868 8 68 61 1.5165522359312 19.469979780959 661.63498659608 7913.7630126423
49	58063 1753 1667 576868 7 68 62 2348.7265777778 2864.3500480671 160807.85386224 418554939.48716
48	59816 1753 1667 576868 7 68 62 5937.0581135842 6219.5178759517 376807.91081314 2290587715.0244
vector 743 Scenario.node[151].veinsmobility posx ETV
vector 744 Scenario.node[151].veinsmobility posy ETV
vector 745 Scenario.node[152].veinsmobility posx ETV
vector 746 Scenario.node[152].veinsmobility posy ETV
vector 747 Scenario.node[146].veinsmobility acceleration ETV
vector 748 Scenario.node[146].veinsmobility co2emission ETV
vector 749 Scenario.node[147].veinsmobility acceleration ETV
vector 750 Scenario.node[147].veinsmobility co2emission ETV
vector 751 Scenario.node[148].veinsmobility acceleration ETV
vector 752 Scenario.node[148].veinsmobility co2emission ETV
vector 753 Scenario.node[149].veinsmobility speed ETV
vector 754 Scenario.node[150].veinsmobility speed ETV
vector 755 Scenario.node[153].veinsmobility posx ETV
vector 756 Scenario.node[153].veinsmobility posy ETV
vector 757 Scenario.node[154].veinsmobility posx ETV
vector 758 Scenario.node[154].veinsmobility posy ETV
vector 759 Scenario.node[149].veinsmobility acceleration ETV
vector 760 Scenario.node[149].veinsmobility co2emission ETV
vector 761 Scenario.node[150].veinsmobility acceleration ETV
vector 762 Scenario.node[150].veinsmobility co2emission ETV
vector 763 Scenario.node[151].veinsmobility speed ETV
vector 764 Scenario.node[152].veinsmobility speed ETV
vector 765 Scenario.node[155].veinsmobility posx ETV
vector 766 Scenario.node[155].veinsmobility posy ETV
vector 767 Scenario.node[156].veinsmobility posx ETV
vector 768 Scenario.node[156].veinsmobility posy ETV
vector 769 Scenario.node[151].veinsmobility acceleration ETV
vector 770 Scenario.node[151].veinsmobility co2emission ETV
vector 771 Scenario.node[152].veinsmobility acceleration ETV
vector 772 Scenario.node[152].veinsmobility co2emission ETV
vector 773 Scenario.node[153].veinsmobility speed ETV
vector 774 Scenario.node[154].veinsmobility speed ETV
vector 775 Scenario.node[157].veinsmobility posx ETV
vector 776 Scenario.node[157].veinsmobility posy ETV
vector 777 Scenario.node[158].veinsmobility posx ETV
vector 778 Scenario.node[158].veinsmobility posy ETV
vector 779 Scenario.node[153].veinsmobility acceleration ETV
vector 780 Scenario.node[153].veinsmobility co2emission ETV
vector 781 Scenario.node[154].veinsmobility acceleration ETV
vector 782 Scenario.node[154].veinsmobility co2emission ETV
vector 783 Scenario.node[155].veinsmobility speed ETV
vector 784 Scenario.node[156].veinsmobility speed ETV
vector 785 Scenario.node[159].veinsmobility posx ETV
vector 786 Scenario.node[159].veinsmobility posy ETV
vector 787 Scenario.node[160].veinsmobility posx ETV
vector 788 Scenario.node[160].veinsmobility posy ETV
vector 789 Scenario.node[155].veinsmobility acceleration ETV
vector 790 Scenario.node[155].veinsmobility co2emission ETV
vector 791 Scenario.node[156].veinsmobility acceleration ETV
vector 792 Scenario.node[156].veinsmobility co2emission ETV
vector 793 Scenario.node[157].veinsmobility speed ETV
vector 794 Scenario.node[158].veinsmobility speed ETV
vector 795 Scenario.node[161].veinsmobility posx ETV
vector 796 Scenario.node[161].veinsmobility posy ETV
vector 797 Scenario.node[162].veinsmobility posx ETV
vector 798 Scenario.node[162].veinsmobility posy ETV
vector 799 Scenario.node[163].veinsmobility posx ETV
vector 800 Scenario.node[163].veinsmobility posy ETV
vector 801 Scenario.node[157].veinsmobility acceleration ETV
vector 802 Scenario.node[157].veinsmobility co2emission ETV
vector 803 Scenario.node[158].veinsmobility acceleration ETV
vector 804 Scenario.node[158].veinsmobility co2emission ETV
vector 805 Scenario.node[159].veinsmobility speed ETV
vector 806 Scenario.node[160].veinsmobility speed ETV
vector 807 Scenario.node[164].veinsmobility posx ETV
vector 808 Scenario.node[164].veinsmobility posy ETV
vector 809 Scenario.node[165].veinsmobility posx ETV
vector 810 Scenario.node[165].veinsmobility posy ETV
vector 811 Scenario.node[159].veinsmobility acceleration ETV
vector 812 Scenario.node[159].veinsmobility co2emission ETV
vector 813 Scenario.node[160].veinsmobility acceleration ETV
vector 814 Scenario.node[160].veinsmobility co2emission ETV
vector 815 Scenario.node[161].veinsmobility speed ETV
vector 816 Scenario.node[162].veinsmobility speed ETV
vector 817 Scenario.node[163].veinsmobility speed ETV
vector 818 Scenario.node[166].veinsmobility posx ETV
vector 819 Scenario.node[166].veinsmobility posy ETV
vector 820 Scenario.node[167].veinsmobility posx ETV
vector 821 Scenario.node[167].veinsmobility posy ETV
vector 822 Scenario.node[161].veinsmobility acceleration ETV
vector 823 Scenario.node[161].veinsmobility co2emission ETV
vector 824 Scenario.node[162].veinsmobility acceleration ETV
vector 825 Scenario.node[162].veinsmobility co2emission ETV
vector 826 Scenario.node[163].veinsmobility acceleration ETV
vector 827 Scenario.node[163].veinsmobility co2emission ETV
vector 828 Scenario.node[164].veinsmobility speed ETV
vector 829 Scenario.node[165].veinsmobility speed ETV
vector 830 Scenario.node[168].veinsmobility posx ETV
vector 831 Scenario.node[168].veinsmobility posy ETV
vector 832 Scenario.node[169].veinsmobility posx ETV
vector 833 Scenario.node[169].veinsmobility posy ETV
vector 834 Scenario.node[164].veinsmobility acceleration ETV
vector 835 Scenario.node[164].veinsmobility co2emission ETV
vector 836 Scenario.node[165].veinsmobility acceleration ETV
vector 837 Scenario.node[165].veinsmobility co2emission ETV
vector 838 Scenario.node[166].veinsmobility speed ETV
vector 839 Scenario.node[167].veinsmobility speed ETV
vector 840 Scenario.node[170].veinsmobility posx ETV
vector 841 Scenario.node[170].veinsmobility posy ETV
vector 842 Scenario.node[171].veinsmobility posx ETV
vector 843 Scenario.node[171].veinsmobility posy ETV
vector 844 Scenario.node[172].veinsmobility posx ETV
vector 845 Scenario.node[172].veinsmobility posy ETV
vector 846 Scenario.node[166].veinsmobility acceleration ETV
vector 847 Scenario.node[166].veinsmobility co2emission ETV
vector 848 Scenario.node[167].veinsmobility acceleration ETV
vector 849 Scenario.node[167].veinsmobility co2emission ETV
vector 850 Scenario.node[168].veinsmobility speed ETV
vector 851 Scenario.node[169].veinsmobility speed ETV
vector 852 Scenario.node[173].veinsmobility posx ETV
vector 853 Scenario.node[173].veinsmobility posy ETV
vector 854 Scenario.node[174].veinsmobility posx ETV
vector 855 Scenario.node[174].veinsmobility posy ETV
vector 856 Scenario.node[168].veinsmobility acceleration ETV
vector 857 Scenario.node[168].veinsmobility co2emission ETV
vector 858 Scenario.node[169].veinsmobility acceleration ETV
vector 859 Scenario.node[169].veinsmobility co2emission ETV
vector 860 Scenario.node[170].veinsmobility speed ETV
vector 861 Scenario.node[171].veinsmobility speed ETV
vector 862 Scenario.node[172].veinsmobility speed ETV
vector 863 Scenario.node[175].veinsmobility posx ETV
vector 864 Scenario.node[175].veinsmobility posy ETV
vector 865 Scenario.node[176].veinsmobility posx ETV
vector 866 Scenario.node[176].veinsmobility posy ETV
vector 867 Scenario.node[170].veinsmobility acceleration ETV
vector 868 Scenario.node[170].veinsmobility co2emission ETV
vector 869 Scenario.node[171].veinsmobility acceleration ETV
vector 870 Scenario.node[171].veinsmobility co2emission ETV
vector 871 Scenario.node[172].veinsmobility acceleration ETV
vector 872 Scenario.node[172].veinsmobility co2emission ETV
vector 873 Scenario.node[173].veinsmobility speed ETV
vector 874 Scenario.node[174].veinsmobility speed ETV
vector 875 Scenario.node[177].veinsmobility posx ETV
vector 876 Scenario.node[177].veinsmobility posy ETV
vector 877 Scenario.node[178].veinsmobility posx ETV
vector 878 Scenario.node[178].veinsmobility posy ETV
vector 879 Scenario.node[173].veinsmobility acceleration ETV
vector 880 Scenario.node[173].veinsmobility co2emission ETV
vector 881 Scenario.node[174].veinsmobility acceleration ETV
vector 882 Scenario.node[174].veinsmobility co2emission ETV
vector 883 Scenario.node[175].veinsmobility speed ETV
vector 884 Scenario.node[176].veinsmobility speed ETV
vector 885 Scenario.node[179].veinsmobility posx ETV
vector 886 Scenario.node[179].veinsmobility posy ETV
vector 887 Scenario.node[175].veinsmobility acceleration ETV
vector 888 Scenario.node[175].veinsmobility co2emission ETV
vector 889 Scenario.node[176].veinsmobility acceleration ETV
vector 890 Scenario.node[176].veinsmobility co2emission ETV
vector 891 Scenario.node[177].veinsmobility speed ETV
vector 892 Scenario.node[178].veinsmobility speed ETV
vector 893 Scenario.node[180].veinsmobility posx ETV
vector 894 Scenario.node[180].veinsmobility posy ETV
vector 895 Scenario.node[177].veinsmobility acceleration ETV
vector 896 Scenario.node[177].veinsmobility co2emission ETV
vector 897 Scenario.node[178].veinsmobility acceleration ETV
vector 898 Scenario.node[178].veinsmobility co2emission ETV
vector 899 Scenario.node[179].veinsmobility speed ETV
vector 900 Scenario.node[181].veinsmobility posx ETV
vector 901 Scenario.node[181].veinsmobility posy ETV
vector 902 Scenario.node[182].veinsmobility posx ETV
vector 903 Scenario.node[182].veinsmobility posy ETV
vector 904 Scenario.node[179].veinsmobility acceleration ETV
vector 905 Scenario.node[179].veinsmobility co2emission ETV
vector 906 Scenario.node[180].veinsmobility speed ETV
vector 907 Scenario.node[183].veinsmobility posx ETV
vector 908 Scenario.node[183].veinsmobility posy ETV
vector 909 Scenario.node[184].veinsmobility posx ETV
vector 910 Scenario.node[184].veinsmobility posy ETV
vector 911 Scenario.node[185].veinsmobility posx ETV
vector 912 Scenario.node[185].veinsmobility posy ETV
vector 913 Scenario.node[180].veinsmobility acceleration ETV
vector 914 Scenario.node[180].veinsmobility co2emission ETV
vector 915 Scenario.node[181].veinsmobility speed ETV
vector 916 Scenario.node[182].veinsmobility speed ETV
vector 917 Scenario.node[186].veinsmobility posx ETV
vector 918 Scenario.node[186].veinsmobility posy ETV
vector 919 Scenario.node[187].veinsmobility posx ETV
vector 920 Scenario.node[187].veinsmobility posy ETV
vector 921 Scenario.node[188].veinsmobility posx ETV
vector 922 Scenario.node[188].veinsmobility posy ETV
vector 923 Scenario.node[181].veinsmobility acceleration ETV
vector 924 Scenario.node[181].veinsmobility co2emission ETV
vector 925 Scenario.node[182].veinsmobility acceleration ETV
vector 926 Scenario.node[182].veinsmobility co2emission ETV
vector 927 Scenario.node[183].veinsmobility speed ETV
vector 928 Scenario.node[184].veinsmobility speed ETV
vector 929 Scenario.node[185].veinsmobility speed ETV
vector 930 Scenario.node[189].veinsmobility posx ETV
vector 931 Scenario.node[189].veinsmobility posy ETV
vector 932 Scenario.node[190].veinsmobility posx ETV
vector 933 Scenario.node[190].veinsmobility posy ETV
vector 934 Scenario.node[191].veinsmobility posx ETV
vector 935 Scenario.node[191].veinsmobility posy ETV
vector 936 Scenario.node[183].veinsmobility acceleration ETV
vector 937 Scenario.node[183].veinsmobility co2emission ETV
vector 938 Scenario.node[184].veinsmobility acceleration ETV
vector 939 Scenario.node[184].veinsmobility co2emission ETV
vector 940 Scenario.node[185].veinsmobility acceleration ETV
vector 941 Scenario.node[185].veinsmobility co2emission ETV
vector 942 Scenario.node[186].veinsmobility speed ETV
vector 943 Scenario.node[187].veinsmobility speed ETV
vector 944 Scenario.node[188].veinsmobility speed ETV
vector 945 Scenario.node[192].veinsmobility posx ETV
vector 946 Scenario.node[192].veinsmobility posy ETV
vector 947 Scenario.node[193].veinsmobility posx ETV
vector 948 Scenario.node[193].veinsmobility posy ETV
vector 949 Scenario.node[186].veinsmobility acceleration ETV
vector 950 Scenario.node[186].veinsmobility co2emission ETV
vector 951 Scenario.node[187].veinsmobility acceleration ETV
vector 952 Scenario.node[187].veinsmobility co2emission ETV
vector 953 Scenario.node[188].veinsmobility acceleration ETV
vector 954 Scenario.node[188].veinsmobility co2emission ETV
vector 955 Scenario.node[189].veinsmobility speed ETV
vector 956 Scenario.node[190].veinsmobility speed ETV
vector 957 Scenario.node[191].veinsmobility speed ETV
vector 958 Scenario.node[194].veinsmobility posx ETV
vector 959 Scenario.node[194].veinsmobility posy ETV
vector 960 Scenario.node[195].veinsmobility posx ETV
vector 961 Scenario.node[195].veinsmobility posy ETV
vector 962 Scenario.node[196].veinsmobility posx ETV
vector 963 Scenario.node[196].veinsmobility posy ETV
vector 964 Scenario.node[189].veinsmobility acceleration ETV
vector 965 Scenario.node[189].veinsmobility co2emission ETV
vector 966 Scenario.node[190].veinsmobility acceleration ETV
vector 967 Scenario.node[190].veinsmobility co2emission ETV
vector 968 Scenario.node[191].veinsmobility acceleration ETV
vector 969 Scenario.node[191].veinsmobility co2emission ETV
vector 970 Scenario.node[192].veinsmobility speed ETV
vector 971 Scenario.node[193].veinsmobility speed ETV
vector 972 Scenario.node[197].veinsmobility posx ETV
vector 973 Scenario.node[197].veinsmobility posy ETV
vector 974 Scenario.node[198].veinsmobility posx ETV
vector 975 Scenario.node[198].veinsmobility posy ETV
vector 976 Scenario.node[192].veinsmobility acceleration ETV
vector 977 Scenario.node[192].veinsmobility co2emission ETV
vector 978 Scenario.node[193].veinsmobility acceleration ETV
vector 979 Scenario.node[193].veinsmobility co2emission ETV
vector 980 Scenario.node[194].veinsmobility speed ETV
vector 981 Scenario.node[195].veinsmobility speed ETV
vector 982 Scenario.node[196].veinsmobility speed ETV
vector 983 Scenario.node[199].veinsmobility posx ETV
vector 984 Scenario.node[199].veinsmobility posy ETV
vector 985 Scenario.node[200].veinsmobility posx ETV
vector 986 Scenario.node[200].veinsmobility posy ETV
vector 987 Scenario.node[194].veinsmobility acceleration ETV
vector 988 Scenario.node[194].veinsmobility co2emission ETV
vector 989 Scenario.node[195].veinsmobility acceleration ETV
vector 990 Scenario.node[195].veinsmobility co2emission ETV
vector 991 Scenario.node[196].veinsmobility acceleration ETV
vector 992 Scenario.node[196].veinsmobility co2emission ETV
vector 993 Scenario.node[197].veinsmobility speed ETV
vector 994 Scenario.node[198].veinsmobility speed ETV
vector 995 Scenario.node[201].veinsmobility posx ETV
vector 996 Scenario.node[201].veinsmobility posy ETV
vector 997 Scenario.node[202].veinsmobility posx ETV
vector 998 Scenario.node[202].veinsmobility posy ETV
vector 999 Scenario.node[203].veinsmobility posx ETV
vector 1000 Scenario.node[203].veinsmobility posy ETV
vector 1001 Scenario.node[197].veinsmobility acceleration ETV
vector 1002 Scenario.node[197].veinsmobility co2emission ETV
vector 1003 Scenario.node[198].veinsmobility acceleration ETV
vector 1004 Scenario.node[198].veinsmobility co2emission ETV
vector 1005 Scenario.node[199].veinsmobility speed ETV
vector 1006 Scenario.node[200].veinsmobility speed ETV
vector 1007 Scenario.node[204].veinsmobility posx ETV
vector 1008 Scenario.node[204].veinsmobility posy ETV
vector 1009 Scenario.node[205].veinsmobility posx ETV
vector 1010 Scenario.node[205].veinsmobility posy ETV
vector 1011 Scenario.node[199].veinsmobility acceleration ETV
vector 1012 Scenario.node[199].veinsmobility co2emission ETV
vector 1013 Scenario.node[200].veinsmobility acceleration ETV
vector 1014 Scenario.node[200].veinsmobility co2emission ETV
vector 1015 Scenario.node[201].veinsmobility speed ETV
vector 1016 Scenario.node[202].veinsmobility speed ETV
vector 1017 Scenario.node[203].veinsmobility speed ETV
vector 1018 Scenario.node[206].veinsmobility posx ETV
vector 1019 Scenario.node[206].veinsmobility posy ETV
vector 1020 Scenario.node[207].veinsmobility posx ETV
vector 1021 Scenario.node[207].veinsmobility posy ETV
vector 1022 Scenario.node[201].veinsmobility acceleration ETV
vector 1023 Scenario.node[201].veinsmobility co2emission ETV
vector 1024 Scenario.node[202].veinsmobility acceleration ETV
vector 1025 Scenario.node[202].veinsmobility co2emission ETV
vector 1026 Scenario.node[203].veinsmobility acceleration ETV
vector 1027 Scenario.node[203].veinsmobility co2emission ETV
vector 1028 Scenario.node[204].veinsmobility speed ETV
vector 1029 Scenario.node[205].veinsmobility speed ETV
vector 1030 Scenario.node[208].veinsmobility posx ETV
vector 1031 Scenario.node[208].veinsmobility posy ETV
vector 1032 Scenario.node[209].veinsmobility posx ETV
vector 1033 Scenario.node[209].veinsmobility posy ETV
vector 1034 Scenario.node[204].veinsmobility acceleration ETV
vector 1035 Scenario.node[204].veinsmobility co2emission ETV
vector 1036 Scenario.node[205].veinsmobility acceleration ETV
vector 1037 Scenario.node[205].veinsmobility co2emission ETV
vector 1038 Scenario.node[206].veinsmobility speed ETV
vector 1039 Scenario.node[207].veinsmobility speed ETV
vector 1040 Scenario.node[210].veinsmobility posx ETV
vector 1041 Scenario.node[210].veinsmobility posy ETV
vector 1042 Scenario.node[211].veinsmobility posx ETV
vector 1043 Scenario.node[211].veinsmobility posy ETV
vector 1044 Scenario.node[212].veinsmobility posx ETV
vector 1045 Scenario.node[212].veinsmobility posy ETV
vector 1046 Scenario.node[206].veinsmobility acceleration ETV
vector 1047 Scenario.node[206].veinsmobility co2emission ETV
vector 1048 Scenario.node[207].veinsmobility acceleration ETV
vector 1049 Scenario.node[207].veinsmobility co2emission ETV
vector 1050 Scenario.node[208].veinsmobility speed ETV
vector 1051 Scenario.node[209].veinsmobility speed ETV
vector 1052 Scenario.node[213].veinsmobility posx ETV
vector 1053 Scenario.node[213].veinsmobility posy ETV
vector 1054 Scenario.node[214].veinsmobility posx ETV
vector 1055 Scenario.node[214].veinsmobility posy ETV
vector 1056 Scenario.node[208].veinsmobility acceleration ETV
vector 1057 Scenario.node[208].veinsmobility co2emission ETV
vector 1058 Scenario.node[209].veinsmobility acceleration ETV
vector 1059 Scenario.node[209].veinsmobility co2emission ETV
vector 1060 Scenario.node[210].veinsmobility speed ETV
vector 1061 Scenario.node[211].veinsmobility speed ETV
vector 1062 Scenario.node[212].veinsmobility speed ETV
vector 1063 Scenario.node[215].veinsmobility posx ETV
vector 1064 Scenario.node[215].veinsmobility posy ETV
vector 1065 Scenario.node[216].veinsmobility posx ETV
vector 1066 Scenario.node[216].veinsmobility posy ETV
vector 1067 Scenario.node[210].veinsmobility acceleration ETV
vector 1068 Scenario.node[210].veinsmobility co2emission ETV
vector 1069 Scenario.node[211].veinsmobility acceleration ETV
vector 1070 Scenario.node[211].veinsmobility co2emission ETV
vector 1071 Scenario.node[212].veinsmobility acceleration ETV
vector 1072 Scenario.node[212].veinsmobility co2emission ETV
vector 1073 Scenario.node[213].veinsmobility speed ETV
vector 1074 Scenario.node[214].veinsmobility speed ETV
vector 1075 Scenario.node[217].veinsmobility posx ETV
vector 1076 Scenario.node[217].veinsmobility posy ETV
vector 1077 Scenario.node[218].veinsmobility posx ETV
vector 1078 Scenario.node[218].veinsmobility posy ETV
vector 1079 Scenario.node[213].veinsmobility acceleration ETV
vector 1080 Scenario.node[213].veinsmobility co2emission ETV
vector 1081 Scenario.node[214].veinsmobility acceleration ETV
vector 1082 Scenario.node[214].veinsmobility co2emission ETV
vector 1083 Scenario.node[215].veinsmobility speed ETV
vector 1084 Scenario.node[216].veinsmobility speed ETV
vector 1085 Scenario.node[219].veinsmobility posx ETV
vector 1086 Scenario.node[219].veinsmobility posy ETV
vector 1087 Scenario.node[220].veinsmobility posx ETV
vector 1088 Scenario.node[220].veinsmobility posy ETV
vector 1089 Scenario.node[221].veinsmobility posx ETV
vector 1090 Scenario.node[221].veinsmobility posy ETV
vector 1091 Scenario.node[215].veinsmobility acceleration ETV
vector 1092 Scenario.node[215].veinsmobility co2emission ETV
vector 1093 Scenario.node[216].veinsmobility acceleration ETV
vector 1094 Scenario.node[216].veinsmobility co2emission ETV
vector 1095 Scenario.node[217].veinsmobility speed ETV
vector 1096 Scenario.node[218].veinsmobility speed ETV
vector 1097 Scenario.node[222].veinsmobility posx ETV
vector 1098 Scenario.node[222].veinsmobility posy ETV
vector 1099 Scenario.node[223].veinsmobility posx ETV
vector 1100 Scenario.node[223].veinsmobility posy ETV
vector 1101 Scenario.node[217].veinsmobility acceleration ETV
vector 1102 Scenario.node[217].veinsmobility co2emission ETV
vector 1103 Scenario.node[218].veinsmobility acceleration ETV
vector 1104 Scenario.node[218].veinsmobility co2emission ETV
vector 1105 Scenario.node[219].veinsmobility speed ETV
vector 1106 Scenario.node[220].veinsmobility speed ETV
vector 1107 Scenario.node[221].veinsmobility speed ETV
vector 1108 Scenario.node[224].veinsmobility posx ETV
vector 1109 Scenario.node[224].veinsmobility posy ETV
vector 1110 Scenario.node[225].veinsmobility posx ETV
vector 1111 Scenario.node[225].veinsmobility posy ETV
vector 1112 Scenario.node[219].veinsmobility acceleration ETV
vector 1113 Scenario.node[219].veinsmobility co2emission ETV
vector 1114 Scenario.node[220].veinsmobility acceleration ETV
vector 1115 Scenario.node[220].veinsmobility co2emission ETV
vector 1116 Scenario.node[221].veinsmobility acceleration ETV
vector 1117 Scenario.node[221].veinsmobility co2emission ETV
vector 1118 Scenario.node[222].veinsmobility speed ETV
vector 1119 Scenario.node[223].veinsmobility speed ETV
vector 1120 Scenario.node[226].veinsmobility posx ETV
vector 1121 Scenario.node[226].veinsmobility posy ETV
vector 1122 Scenario.node[227].veinsmobility posx ETV
vector 1123 Scenario.node[227].veinsmobility posy ETV
vector 1124 Scenario.node[228].veinsmobility posx ETV
vector 1125 Scenario.node[228].veinsmobility posy ETV
vector 1126 Scenario.node[222].veinsmobility acceleration ETV
vector 1127 Scenario.node[222].veinsmobility co2emission ETV
vector 1128 Scenario.node[223].veinsmobility acceleration ETV
vector 1129 Scenario.node[223].veinsmobility co2emission ETV
vector 1130 Scenario.node[224].veinsmobility speed ETV
vector 1131 Scenario.node[225].veinsmobility speed ETV
vector 1132 Scenario.node[229].veinsmobility posx ETV
vector 1133 Scenario.node[229].veinsmobility posy ETV
vector 1134 Scenario.node[230].veinsmobility posx ETV
vector 1135 Scenario.node[230].veinsmobility posy ETV
vector 1136 Scenario.node[224].veinsmobility acceleration ETV
vector 1137 Scenario.node[224].veinsmobility co2emission ETV
vector 1138 Scenario.node[225].veinsmobility acceleration ETV
vector 1139 Scenario.node[225].veinsmobility co2emission ETV
vector 1140 Scenario.node[226].veinsmobility speed ETV
vector 1141 Scenario.node[227].veinsmobility speed ETV
vector 1142 Scenario.node[228].veinsmobility speed ETV
vector 1143 Scenario.node[231].veinsmobility posx ETV
vector 1144 Scenario.node[231].veinsmobility posy ETV
vector 1145 Scenario.node[226].veinsmobility acceleration ETV
vector 1146 Scenario.node[226].veinsmobility co2emission ETV
vector 1147 Scenario.node[227].veinsmobility acceleration ETV
vector 1148 Scenario.node[227].veinsmobility co2emission ETV
vector 1149 Scenario.node[228].veinsmobility acceleration ETV
vector 1150 Scenario.node[228].veinsmobility co2emission ETV
vector 1151 Scenario.node[229].veinsmobility speed ETV
vector 1152 Scenario.node[230].veinsmobility speed ETV
vector 1153 Scenario.node[232].veinsmobility posx ETV
vector 1154 Scenario.node[232].veinsmobility posy ETV
vector 1155 Scenario.node[233].veinsmobility posx ETV
vector 1156 Scenario.node[233].veinsmobility posy ETV
vector 1157 Scenario.node[229].veinsmobility acceleration ETV
vector 1158 Scenario.node[229].veinsmobility co2emission ETV
vector 1159 Scenario.node[230].veinsmobility acceleration ETV
vector 1160 Scenario.node[230].veinsmobility co2emission ETV
vector 1161 Scenario.node[231].veinsmobility speed ETV
vector 1162 Scenario.node[234].veinsmobility posx ETV
vector 1163 Scenario.node[234].veinsmobility posy ETV
vector 1164 Scenario.node[235].veinsmobility posx ETV
vector 1165 Scenario.node[235].veinsmobility posy ETV
vector 1166 Scenario.node[236].veinsmobility posx ETV
vector 1167 Scenario.node[236].veinsmobility posy ETV
vector 1168 Scenario.node[231].veinsmobility acceleration ETV
vector 1169 Scenario.node[231].veinsmobility co2emission ETV
vector 1170 Scenario.node[232].veinsmobility speed ETV
vector 1171 Scenario.node[233].veinsmobility speed ETV
vector 1172 Scenario.node[237].veinsmobility posx ETV
vector 1173 Scenario.node[237].veinsmobility posy ETV
vector 1174 Scenario.node[238].veinsmobility posx ETV
vector 1175 Scenario.node[238].veinsmobility posy ETV
vector 1176 Scenario.node[232].veinsmobility acceleration ETV
vector 1177 Scenario.node[232].veinsmobility co2emission ETV
vector 1178 Scenario.node[233].veinsmobility acceleration ETV
vector 1179 Scenario.node[233].veinsmobility co2emission ETV
vector 1180 Scenario.node[234].veinsmobility speed ETV
vector 1181 Scenario.node[235].veinsmobility speed ETV
vector 1182 Scenario.node[236].veinsmobility speed ETV
vector 1183 Scenario.node[239].veinsmobility posx ETV
vector 1184 Scenario.node[239].veinsmobility posy ETV
vector 1185 Scenario.node[240].veinsmobility posx ETV
vector 1186 Scenario.node[240].veinsmobility posy ETV
vector 1187 Scenario.node[234].veinsmobility acceleration ETV
vector 1188 Scenario.node[234].veinsmobility co2emission ETV
vector 1189 Scenario.node[235].veinsmobility acceleration ETV
vector 1190 Scenario.node[235].veinsmobility co2emission ETV
vector 1191 Scenario.node[236].veinsmobility acceleration ETV
vector 1192 Scenario.node[236].veinsmobility co2emission ETV
vector 1193 Scenario.node[237].veinsmobility speed ETV
vector 1194 Scenario.node[238].veinsmobility speed ETV
vector 1195 Scenario.node[241].veinsmobility posx ETV
vector 1196 Scenario.node[241].veinsmobility posy ETV
vector 1197 Scenario.node[242].veinsmobility posx ETV
vector 1198 Scenario.node[242].veinsmobility posy ETV
vector 1199 Scenario.node[237].veinsmobility acceleration ETV
vector 1200 Scenario.node[237].veinsmobility co2emission ETV
vector 1201 Scenario.node[238].veinsmobility acceleration ETV
vector 1202 Scenario.node[238].veinsmobility co2emission ETV
vector 1203 Scenario.node[239].veinsmobility speed ETV
vector 1204 Scenario.node[240].veinsmobility speed ETV
462	87747 1897 169503 2258123 43 110 68 0.010479108788315 21.066166860097 351.03705985234 3338.1913045363
461	89644 2055 169503 2258123 43 110 68 -4.5 2.5923178344034 13.020861304688 295.95790886789
452	91699 2105 159078 2258123 42 110 69 1.7972740404308 31.231053368811 1008.6265516893 19211.001027621
435	93804 2129 148689 2258123 41 110 70 1156.1172453239 1572.0661413123 98932.289364232 141105005.8332
434	95933 2133 148689 2258123 41 110 70 6620.7513746631 7322.8132304894 484442.28405035 3356003462.8489
vector 1205 Scenario.node[243].veinsmobility posx ETV
vector 1206 Scenario.node[243].veinsmobility posy ETV
vector 1207 Scenario.node[244].veinsmobility posx ETV
vector 1208 Scenario.node[244].veinsmobility posy ETV
vector 1209 Scenario.node[245].veinsmobility posx ETV
vector 1210 Scenario.node[245].veinsmobility posy ETV
vector 1211 Scenario.node[239].veinsmobility acceleration ETV
vector 1212 Scenario.node[239].veinsmobility co2emission ETV
vector 1213 Scenario.node[240].veinsmobility acceleration ETV
vector 1214 Scenario.node[240].veinsmobility co2emission ETV
vector 1215 Scenario.node[241].veinsmobility speed ETV
vector 1216 Scenario.node[242].veinsmobility speed ETV
vector 1217 Scenario.node[246].veinsmobility posx ETV
vector 1218 Scenario.node[246].veinsmobility posy ETV
vector 1219 Scenario.node[247].veinsmobility posx ETV
vector 1220 Scenario.node[247].veinsmobility posy ETV
vector 1221 Scenario.node[241].veinsmobility acceleration ETV
vector 1222 Scenario.node[241].veinsmobility co2emission ETV
vector 1223 Scenario.node[242].veinsmobility acceleration ETV
vector 1224 Scenario.node[242].veinsmobility co2emission ETV
vector 1225 Scenario.node[243].veinsmobility speed ETV
vector 1226 Scenario.node[244].veinsmobility speed ETV
vector 1227 Scenario.node[245].veinsmobility speed ETV
vector 1228 Scenario.node[248].veinsmobility posx ETV
vector 1229 Scenario.node[248].veinsmobility posy ETV
vector 1230 Scenario.node[249].veinsmobility posx ETV
vector 1231 Scenario.node[249].veinsmobility posy ETV
vector 1232 Scenario.node[243].veinsmobility acceleration ETV
vector 1233 Scenario.node[243].veinsmobility co2emission ETV
vector 1234 Scenario.node[244].veinsmobility acceleration ETV
vector 1235 Scenario.node[244].veinsmobility co2emission ETV
vector 1236 Scenario.node[245].veinsmobility acceleration ETV
vector 1237 Scenario.node[245].veinsmobility co2emission ETV
vector 1238 Scenario.node[246].veinsmobility speed ETV
vector 1239 Scenario.node[247].veinsmobility speed ETV
vector 1240 Scenario.node[250].veinsmobility posx ETV
vector 1241 Scenario.node[250].veinsmobility posy ETV
vector 1242 Scenario.node[251].veinsmobility posx ETV
vector 1243 Scenario.node[251].veinsmobility posy ETV
vector 1244 Scenario.node[252].veinsmobility posx ETV
vector 1245 Scenario.node[252].veinsmobility posy ETV
vector 1246 Scenario.node[246].veinsmobility acceleration ETV
vector 1247 Scenario.node[246].veinsmobility co2emission ETV
vector 1248 Scenario.node[247].veinsmobility acceleration ETV
vector 1249 Scenario.node[247].veinsmobility co2emission ETV
vector 1250 Scenario.node[248].veinsmobility speed ETV
vector 1251 Scenario.node[249].veinsmobility speed ETV
vector 1252 Scenario.node[253].veinsmobility posx ETV
vector 1253 Scenario.node[253].veinsmobility posy ETV
vector 1254 Scenario.node[254].veinsmobility posx ETV
vector 1255 Scenario.node[254].veinsmobility posy ETV
vector 1256 Scenario.node[248].veinsmobility acceleration ETV
vector 1257 Scenario.node[248].veinsmobility co2emission ETV
vector 1258 Scenario.node[249].veinsmobility acceleration ETV
vector 1259 Scenario.node[249].veinsmobility co2emission ETV
vector 1260 Scenario.node[250].veinsmobility speed ETV
vector 1261 Scenario.node[251].veinsmobility speed ETV
vector 1262 Scenario.node[252].veinsmobility speed ETV
vector 1263 Scenario.node[255].veinsmobility posx ETV
vector 1264 Scenario.node[255].veinsmobility posy ETV
vector 1265 Scenario.node[256].veinsmobility posx ETV
vector 1266 Scenario.node[256].veinsmobility posy ETV
vector 1267 Scenario.node[250].veinsmobility acceleration ETV
vector 1268 Scenario.node[250].veinsmobility co2emission ETV
vector 1269 Scenario.node[251].veinsmobility acceleration ETV
vector 1270 Scenario.node[251].veinsmobility co2emission ETV
vector 1271 Scenario.node[252].veinsmobility acceleration ETV
vector 1272 Scenario.node[252].veinsmobility co2emission ETV
vector 1273 Scenario.node[253].veinsmobility speed ETV
vector 1274 Scenario.node[254].veinsmobility speed ETV
vector 1275 Scenario.node[257].veinsmobility posx ETV
vector 1276 Scenario.node[257].veinsmobility posy ETV
vector 1277 Scenario.node[258].veinsmobility posx ETV
vector 1278 Scenario.node[258].veinsmobility posy ETV
vector 1279 Scenario.node[253].veinsmobility acceleration ETV
vector 1280 Scenario.node[253].veinsmobility co2emission ETV
vector 1281 Scenario.node[254].veinsmobility acceleration ETV
vector 1282 Scenario.node[254].veinsmobility co2emission ETV
vector 1283 Scenario.node[255].veinsmobility speed ETV
vector 1284 Scenario.node[256].veinsmobility speed ETV
vector 1285 Scenario.node[259].veinsmobility posx ETV
vector 1286 Scenario.node[259].veinsmobility posy ETV
vector 1287 Scenario.node[260].veinsmobility posx ETV
vector 1288 Scenario.node[260].veinsmobility posy ETV
vector 1289 Scenario.node[261].veinsmobility posx ETV
vector 1290 Scenario.node[261].veinsmobility posy ETV
vector 1291 Scenario.node[255].veinsmobility acceleration ETV
vector 1292 Scenario.node[255].veinsmobility co2emission ETV
vector 1293 Scenario.node[256].veinsmobility acceleration ETV
vector 1294 Scenario.node[256].veinsmobility co2emission ETV
vector 1295 Scenario.node[257].veinsmobility speed ETV
vector 1296 Scenario.node[258].veinsmobility speed ETV
vector 1297 Scenario.node[262].veinsmobility posx ETV
vector 1298 Scenario.node[262].veinsmobility posy ETV
vector 1299 Scenario.node[263].veinsmobility posx ETV
vector 1300 Scenario.node[263].veinsmobility posy ETV
vector 1301 Scenario.node[257].veinsmobility acceleration ETV
vector 1302 Scenario.node[257].veinsmobility co2emission ETV
vector 1303 Scenario.node[258].veinsmobility acceleration ETV
vector 1304 Scenario.node[258].veinsmobility co2emission ETV
vector 1305 Scenario.node[259].veinsmobility speed ETV
vector 1306 Scenario.node[260].veinsmobility speed ETV
vector 1307 Scenario.node[261].veinsmobility speed ETV
vector 1308 Scenario.node[264].veinsmobility posx ETV
vector 1309 Scenario.node[264].veinsmobility posy ETV
vector 1310 Scenario.node[265].veinsmobility posx ETV
vector 1311 Scenario.node[265].veinsmobility posy ETV
vector 1312 Scenario.node[259].veinsmobility acceleration ETV
vector 1313 Scenario.node[259].veinsmobility co2emission ETV
vector 1314 Scenario.node[260].veinsmobility acceleration ETV
vector 1315 Scenario.node[260].veinsmobility co2emission ETV
vector 1316 Scenario.node[261].veinsmobility acceleration ETV
vector 1317 Scenario.node[261].veinsmobility co2emission ETV
vector 1318 Scenario.node[262].veinsmobility speed ETV
vector 1319 Scenario.node[263].veinsmobility speed ETV
303	104644 2629 59308 2910392 29 120 92 -2.0490136352048 24.719832058958 671.00196905434 7874.0372734447
302	107273 2747 59308 2910392 29 120 92 -4.5 2.5651967352023 14.024348566591 408.12371583429
295	110020 2816 54521 2910392 28 120 93 2.0072538219159 33.874932 2053.9142970169 53819.707281219
276	112836 2859 49218 2910392 27 120 94 1668.5580748976 2413.6903002995 192756.65203308 399954896.18591
275	115695 2854 49218 2910392 27 120 94 5271.6981977765 6756.2695151547 569999.49250727 3477178564.4621
vector 1320 Scenario.node[266].veinsmobility posx ETV
vector 1321 Scenario.node[266].veinsmobility posy ETV
vector 1322 Scenario.node[267].veinsmobility posx ETV
vector 1323 Scenario.node[267].veinsmobility posy ETV
vector 1324 Scenario.node[262].veinsmobility acceleration ETV
vector 1325 Scenario.node[262].veinsmobility co2emission ETV
vector 1326 Scenario.node[263].veinsmobility acceleration ETV
vector 1327 Scenario.node[263].veinsmobility co2emission ETV
vector 1328 Scenario.node[264].veinsmobility speed ETV
vector 1329 Scenario.node[265].veinsmobility speed ETV
137	119121 2950 9844 2978541 14 121 108 0.973 9.7207653610597 310.55405484534 1398.6470524506
136	122071 3401 9844 2978541 14 121 108 -4.5 2.5665840328607 11.840593674756 185.00249552289
127	125472 3314 8284 2978541 13 121 109 0.00036676482288597 15.075351787808 1274.6819325083 17091.684303855
110	128786 3316 7017 2978541 12 121 110 3073.3635406839 3642.6165806348 365789.42856877 1217890769.8782
[...]
11087	107950878 135 643186596 646411025 997 1000 4 0.973 4.1181866249269 9.5108128341514 28.024354387065
11088	107951013 153 643186596 646411025 997 1000 4 -0.71380489838775 0.58878685976379 -0.16824150113389 0.85899153126843
11089	107951166 135 643186596 646411025 997 1000 4 0.973 4.3984178366686 9.4558841765066 28.659086289425
11090	107951301 145 643186596 646411025 997 1000 4 1.3058639475377 2.5613917469745 7.5935212568613 15.236886713161
11091	107951446 144 643186596 646411025 997 1000 4 7.6920292330463 12.22358810674 39.829557620647 415.14400874465
11092	107951590 145 643186596 646411025 997 1000 4 9390.4510936243 9396.8223567346 37575.15964819 352973176.91373
11093	107951735 142 643186596 646411025 997 1000 4 6572.392501965 6607.93281502 26360.878965992 173724687.46947
11094	107951877 145 643186596 646411025 997 1000 4 6832.9948514517 6839.3011305155 27347.719671798 186974467.60471
11095	107952022 143 643186596 646411025 997 1000 4 4390.6872204448 4403.8112131032 17591.735446142 77367386.321143
11096	107952165 144 643186596 646411025 997 1000 4 22.788449733787 26.799450062604 100.73264206124 2546.5592622203
11097	107952309 145 643186596 646411025 997 1000 4 2554.5914585794 2587.4038005536 10284.808777334 26444919.111044
11098	107952454 145 643186596 646411025 997 1000 4 5114.4682966669 5134.9557934881 20501.863102259 105081838.16766
11099	107952599 145 643186596 646411025 997 1000 4 3378.1671084057 3394.9754721165 13546.865015945 45879546.050349
11100	107952744 145 643186596 646411025 997 1000 4 1596.1054255717 1616.1073806443 6418.736527631 10300277.116372
11101	107952889 143 643186596 646411025 997 1000 4 9219.7902529095 9245.3137097438 36932.62418827 341005042.67675
11102	107953032 145 643186596 646411025 997 1000 4 2639.5198051077 2669.2094885237 10615.535802495 28172897.840536
11103	107953177 147 643186596 646411025 997 1000 4 -4.0110003288166 1.5692162565188 -0.45873998942439 21.058444737174
11104	107953324 132 643186596 646411025 997 1000 4 0.973 13.65941504802 34.960155971682 411.42468110325
11105	107953456 145 643186596 646411025 997 1000 4 11.984165558981 12.367426550475 48.576641509306 590.0029964709
11106	107953601 145 643186596 646411025 997 1000 4 3.4699940835416 6.8061822990246 19.0865840832 98.120731746272
11107	107953746 145 643186596 646411025 997 1000 4 6485.8123275548 6503.4254237762 25983.150039296 168781196.38931
11108	107953891 145 643186596 646411025 997 1000 4 1794.9867635511 1811.1436451978 7216.2375028656 13018667.089999
11109	107954036 145 643186596 646411025 997 1000 4 4956.2449810956 4957.7375367663 19827.825270844 98285664.90453
11110	107954181 145 643186596 646411025 997 1000 4 2073.3033702742 2127.9498204815 8402.5500118242 17652374.224781
11111	107954326 151 643186596 646411025 997 1000 4 -0.29378392773215 0.2851706675021 0.069150894135237 0.2036070757775
11112	107954477 135 643186596 646411025 997 1000 4 0.973 2.7313174280464 7.6447044730588 16.461239481005
11113	107954612 147 643186596 646411025 997 1000 4 -1.9078656327308 1.7139146259055 1.4283225827522 8.5272578133722
11114	107954759 135 643186596 646411025 997 1000 4 0.973 4.2787733157852 9.8224704945278 30.882620934611
11115	107954894 144 643186596 646411025 997 1000 4 12.476571827952 13.291779283655 51.92817575438 674.51923097827
11116	107955038 145 643186596 646411025 997 1000 4 7.0859547326251 10.756169661731 34.630980197211 307.74435580628
11117	107955183 145 643186596 646411025 997 1000 4 12.541072887511 13.407737041128 51.957185538101 675.2843188948
11118	107955328 144 643186596 646411025 997 1000 4 6505.5266261268 6535.1207471394 26081.47549333 170061328.68578
11119	107955472 145 643186596 646411025 997 1000 4 2584.1266204735 2607.5449427198 10383.194670909 26952988.255841
11120	107955617 145 643186596 646411025 997 1000 4 8658.2400620225 8707.7198815156 34732.074482456 301580607.68392
11121	107955762 144 643186596 646411025 997 1000 4 3098.2548850306 3119.5726456806 12435.588455939 38661217.17547
11122	107955906 145 643186596 646411025 997 1000 4 3651.8606766004 3653.7439002057 14611.492856226 53373932.871118
11123	107956051 145 643186596 646411025 997 1000 4 4665.4608389422 4695.1452233045 18725.683997835 87663307.0207
11124	107956196 144 643186596 646411025 997 1000 4 6394.5909155986 6436.5865628921 25659.86705564 164608179.10822
11125	107956340 144 643186596 646411025 997 1000 4 2064.5801657976 2102.9614103876 8331.8984778007 17355953.989684
11126	107956484 151 643186596 646411025 997 1000 4 -0.68929747256916 0.29782394140493 -0.4533690870041 0.58378127651876
11127	107956635 135 643186596 646411025 997 1000 4 0.973 2.9221516838653 7.5915544410078 16.487649061576
11128	107956770 147 643186596 646411025 997 1000 4 -0.63557794776279 1.9813683898421 4.2568290921287 8.6757362127976
11129	107956917 135 643186596 646411025 997 1000 4 0.973 6.1217276232095 16.840117449505 88.212599927523
11130	107957052 150 643186596 646411025 997 1000 4 -0.50502888823394 0.71669830173274 1.0783335671157 1.1787236949824
11131	107957202 135 643186596 646411025 997 1000 4 0.973 4.0633411887029 11.725271471586 40.13093009377
11132	107957337 145 643186596 646411025 997 1000 4 5.2890737042725 11.410465528322 35.299903318235 339.87408366269
11133	107957482 145 643186596 646411025 997 1000 4 17.263286264031 18.336072017099 71.814001784457 1289.9887609423
11134	107957627 145 643186596 646411025 997 1000 4 2901.0978709844 2933.2963306613 11669.397211671 34044283.972646
11135	107957772 145 643186596 646411025 997 1000 4 4630.2963257807 4649.5824134922 18559.780001192 86116564.289361
11136	107957917 145 643186596 646411025 997 1000 4 1087.9493424088 1122.3079602146 4420.2599707754 4885336.563798
11137	107958062 145 643186596 646411025 997 1000 4 6647.6428093392 6654.5904942554 26604.518097039 176950122.86306
11138	107958207 152 643186596 646411025 997 1000 4 -4.1976607131772 0.022906257825644 -6.1509497911806 21.324374041436
11139	107958359 125 643186596 646411025 997 1000 4 0.973 1.8606719389175 5.4584406759951 8.0838980250621
11140	107958484 149 643186596 646411025 997 1000 4 -0.28338201309089 2.2619151318911 3.0513188718683 6.0344854872335
11141	107958633 143 643186596 646411025 997 1000 4 1.2914507717029 11.82864320315 22.926605718901 194.59701269742
11142	107958776 144 643186596 646411025 997 1000 4 12.390833331426 13.400109144221 51.138986996362 654.36222308731
11143	107958920 145 643186596 646411025 997 1000 4 17.831120800153 18.106699169516 71.960299231729 1294.6215505284
11144	107959065 144 643186596 646411025 997 1000 4 5.5953700214668 12.04548778234 35.33950866395 336.32403674598
11145	107959209 144 643186596 646411025 997 1000 4 15.279871882894 20.938955019484 72.311807258171 1325.9733376287
11146	107959353 144 643186596 646411025 997 1000 4 5640.403405892 5641.0301242385 22562.869063633 127270765.31289
11147	107959497 143 643186596 646411025 997 1000 4 3095.74647428 3132.4668068699 12456.291100411 38790542.641778
11148	107959640 145 643186596 646411025 997 1000 4 9188.4506123961 9210.3021148202 36793.866455111 338447420.12482
11149	107959785 145 643186596 646411025 997 1000 4 2612.3321497477 2631.2886887275 10484.084784983 27479210.096544
11150	107959930 144 643186596 646411025 997 1000 4 4922.094556662 4958.6039947693 19761.581740465 97630767.95319
11151	107960074 145 643186596 646411025 997 1000 4 4923.5262192116 4948.1139900981 19743.005236092 97446899.867589
11152	107960219 152 643186596 646411025 997 1000 4 -0.77541664678138 0.39717645242345 -0.61209936037194 0.87932249293228
11153	107960371 125 643186596 646411025 997 1000 4 0.973 3.2613519718405 7.4239219924982 17.443057340706
11154	107960496 149 643186596 646411025 997 1000 4 -0.1457438206339 2.5755195120815 2.5981071402513 6.741987357996
11155	107960645 144 643186596 646411025 997 1000 4 1.878513406226 13.753530776491 21.399480441871 210.76741411619
11156	107960789 146 643186596 646411025 997 1000 4 0.03213722568471 2.5694256244227 6.4822549865581 14.13453658835
11157	107960935 145 643186596 646411025 997 1000 4 1.4394401935886 7.9703260559467 21.916135456503 146.43948903918
11158	107961080 144 643186596 646411025 997 1000 4 1.6031321366783 2.3269723166479 7.6323870810447 14.868128554478
11159	107961224 145 643186596 646411025 997 1000 4 8.8918177930955 13.464517409496 43.492687154595 486.26125484906
11160	107961369 145 643186596 646411025 997 1000 4 12.070183605793 12.794044275977 49.616122737221 615.7178494758
11161	107961514 143 643186596 646411025 997 1000 4 11.28682387006 12.220571950199 46.498401254784 541.03316161259
11162	107961657 144 643186596 646411025 997 1000 4 8539.9128816097 8569.432817066 34218.970566877 292734974.78326
11163	107961801 144 643186596 646411025 997 1000 4 2261.798245212 2286.0303625968 9095.886378338 20684116.16237
11164	107961945 145 643186596 646411025 997 1000 4 7581.8762474593 7617.7964217264 30395.870125937 230977948.17613
11165	107962090 144 643186596 646411025 997 1000 4 3928.6109941978 3945.8754905261 15750.031069338 62016035.608683
11166	107962234 153 643186596 646411025 997 1000 4 -0.33810061411932 0.72386067018379 0.17568816062994 0.66639183403371
11167	107962387 135 643186596 646411025 997 1000 4 0.973 4.1525733654422 8.2353924790549 23.073592478761
11168	107962522 152 643186596 646411025 997 1000 4 -0.67396001813468 0.93374808013905 -0.15168379778042 1.4154021133331
11169	107962674 125 643186596 646411025 997 1000 4 0.973 4.6181518785954 7.9228467172086 25.066836438248
11170	107962799 144 643186596 646411025 997 1000 4 11.95544156266 12.452113232986 48.80375651496 595.60314025484
11171	107962943 145 643186596 646411025 997 1000 4 5.8567408966539 12.109810002771 34.785340932709 324.88083470761
11172	107963088 144 643186596 646411025 997 1000 4 12.304980543396 14.851651688611 56.322893105268 797.32235255377
11173	107963232 145 643186596 646411025 997 1000 4 6463.0543714526 6478.0474128402 25874.654946389 167374580.85867
11174	107963377 145 643186596 646411025 997 1000 4 2899.2054599172 2906.8573591266 11616.07506312 33733336.133594
11175	107963522 145 643186596 646411025 997 1000 4 6507.4797416837 6526.6106679799 26070.621884837 169919537.29821
11176	107963667 145 643186596 646411025 997 1000 4 3531.3314452851 3558.4438584767 14183.008616378 50289846.96454
11177	107963812 149 643186596 646411025 997 1000 4 -0.49667167032603 2.2001682384638 2.4372511979127 5.3566854001786
11178	107963961 133 643186596 646411025 997 1000 4 0.973 8.2606169305532 15.189602159414 86.92309216674
11179	107964094 144 643186596 646411025 997 1000 4 0.20455145720665 2.583259360888 6.4576205633235 13.76787291671
11180	107964238 145 643186596 646411025 997 1000 4 1.6998067664472 9.3973804164983 21.896757336034 153.32093333565
11181	107964383 147 643186596 646411025 997 1000 4 0.075654967097991 2.2403224096866 4.4975370329259 8.8838655000171
11182	107964530 144 643186596 646411025 997 1000 4 2.370632193548 9.9492084718597 22.935613475614 172.02824370159
11183	107964674 140 643186596 646411025 997 1000 4 10.3418077813 13.242752571 48.533586533468 593.61566267123
11184	107964814 145 643186596 646411025 997 1000 4 9.9401419524802 15.138589935889 49.804791385261 634.93427545274
11185	107964959 143 643186596 646411025 997 1000 4 6221.6373238394 6245.18677037 24937.504321173 155470091.42037
11186	107965102 143 643186596 646411025 997 1000 4 4413.628541115 4428.023714415 17680.947355906 78154091.049575
11187	107965245 145 643186596 646411025 997 1000 4 4726.2507884794 4746.3631698824 18947.991578136 89756822.39422
11188	107965390 145 643186596 646411025 997 1000 4 4889.5567532021 4909.7861048606 19595.421494351 95995366.045053
11189	107965535 145 643186596 646411025 997 1000 4 4814.4178933281 4846.0163206587 19325.347748141 93367828.062993
11190	107965680 145 643186596 646411025 997 1000 4 3369.6086116085 3375.5070892931 13489.395247213 45490965.605529
11191	107965825 148 643186596 646411025 997 1000 4 -0.58764998067636 2.4473471990554 4.7606420080798 11.045873379972
11192	107965973 135 643186596 646411025 997 1000 4 0.973 7.8107765362092 21.433844642333 145.52337204279
11193	107966108 145 643186596 646411025 997 1000 4 1.5886718027061 2.2438263885677 7.442274371977 14.136065903988
11194	107966253 145 643186596 646411025 997 1000 4 6.3515959159324 9.3890852993299 29.788863215115 227.17537460797
11195	107966398 145 643186596 646411025 997 1000 4 1.4308942919057 10.057029923029 24.841820122528 194.863010094
11196	107966543 144 643186596 646411025 997 1000 4 7.0746978736948 13.027718211152 40.257665842329 426.18086508399
11197	107966687 145 643186596 646411025 997 1000 4 5658.9208385054 5683.0323433455 22679.551439074 128590840.8754
11198	107966832 145 643186596 646411025 997 1000 4 2958.3996245975 2959.2440630781 11835.439894489 35019409.775722
11199	107966977 145 643186596 646411025 997 1000 4 2711.0797208319 2713.7119774307 10849.558702954 29428234.845839
11200	107967122 145 643186596 646411025 997 1000 4 3337.1044301114 3378.5751265735 13431.507985448 45102302.170082
11201	107967267 134 643186596 646411025 997 1000 4 -4.5 2.5642028435832 -3.8017688490758 48.958472498195
11202	107967401 125 643186596 646411025 997 1000 4 0.973 7.1671788051521 15.461337149932 93.56102439542
11203	107967526 144 643186596 646411025 997 1000 4 1.667317651026 2.5655513627687 7.7575264252722 15.577164741687
11204	107967670 144 643186596 646411025 997 1000 4 4.560681445846 8.8175793710582 25.798887651214 177.55663294665
11205	107967814 145 643186596 646411025 997 1000 4 5.5033529510023 11.523143791826 33.104587770603 294.46676042981
11206	107967959 145 643186596 646411025 997 1000 4 5.9278893230716 11.657178861648 34.459849194321 315.56838992758
11207	107968104 145 643186596 646411025 997 1000 4 5.9765515121398 12.899472698942 38.12011740536 390.55568554965
11208	107968249 145 643186596 646411025 997 1000 4 8223.3322891977 8236.6596651001 32917.694426922 270893751.894
11209	107968394 144 643186596 646411025 997 1000 4 2193.3127923428 2205.1745295159 8794.9369410163 19337808.400106
11210	107968538 144 643186596 646411025 997 1000 4 9538.974758787 9587.5425892847 38252.608070793 365816818.27841
11211	107968682 145 643186596 646411025 997 1000 4 2767.8132705392 2769.1787711915 11074.116633509 30659015.74831
11212	107968827 145 643186596 646411025 997 1000 4 1.5001930866158 2.5303876995109 8.550178540335 18.938113959921
11213	107968972 143 643186596 646411025 997 1000 4 4.0116929899338 8.60717215974 23.511808639455 150.48385508252
11214	107969115 145 643186596 646411025 997 1000 4 1.4703712505987 2.5965256752679 8.3258152138442 17.978372421646
11215	107969260 145 643186596 646411025 997 1000 4 4.1259435441322 7.9449773446416 23.587758075523 147.26815370673
11216	107969405 145 643186596 646411025 997 1000 4 1.4850670028944 2.5583433024585 8.4079881896963 18.343051898766
11217	107969550 145 643186596 646411025 997 1000 4 3.5570442979088 8.4768113594928 26.500441742553 190.8038999672
11218	107969695 144 643186596 646411025 997 1000 4 4.3569332319777 10.234739748761 28.484155201097 222.51995026769
11219	107969839 144 643186596 646411025 997 1000 4 13.48378540587 14.108921818503 55.038252889312 757.61572649111
11220	107969983 109 644208210 646411025 998 1000 3 2677.4891399137 2680.3789757058 8037.0881448019 21531599.512534
11221	107970092 108 644208210 646411025 998 1000 3 2497.3125707745 2525.239090531 7533.6444731067 18918989.649974
11222	107970200 145 643186596 646411025 997 1000 4 1.5200431230012 2.2192338833818 8.0932789657498 16.717156763916
11223	107970345 144 643186596 646411025 997 1000 4 3.565171830643 7.1766629071855 20.07126392179 109.77670337866
11224	107970489 151 643186596 646411025 997 1000 4 -0.62341920731124 0.62513641263358 0.55513637533877 1.0108575277106
11225	107970640 134 643186596 646411025 997 1000 4 0.973 4.175684872207 11.023220791899 36.601480553848
11226	107970774 144 643186596 646411025 997 1000 4 2.320710295788 7.4344399054535 20.165068835462 116.23746746759
11227	107970918 145 643186596 646411025 997 1000 4 15.957791964439 16.364474649201 64.760024061789 1048.5676347266
11228	107971063 108 644208210 646411025 998 1000 3 3023.775139842 3030.5759935795 9079.7840138653 27480851.063257
11229	107971171 108 644208210 646411025 998 1000 3 1369.5126674599 1390.707173656 4139.5753630253 5712253.0450133
11230	107971279 109 644208210 646411025 998 1000 3 5864.7969094532 5883.3794657969 17622.265117052 103514915.27426
11231	107971388 108 644208210 646411025 998 1000 3 1420.7446235849 1432.812492805 4280.3353146917 6107162.9521328
11232	107971496 109 644208210 646411025 998 1000 3 8695.8698540735 8699.4623532629 26093.529311262 226957430.61355
11233	107971605 109 644208210 646411025 998 1000 3 3924.3180898261 3929.3649781261 11781.270572586 46266125.208019
11234	107971714 109 644208210 646411025 998 1000 3 1.3935166246258 2.0482850576052 5.1137296096655 8.9327032548526
11235	107971823 108 644208210 646411025 998 1000 3 3.4851608002312 4.0033603769819 11.34439742381 43.041021740528
11236	107971931 115 644208210 646411025 998 1000 3 -0.35171145140194 0.23622061689385 -0.17046206786763 0.18252296139003
11237	107972046 99 644208210 646411025 998 1000 3 0.973 3.2358739805687 6.2903447525738 15.750129992833
11238	107972145 109 644208210 646411025 998 1000 3 13.578548024428 14.296985238554 41.718102248539 580.39746948302
11239	107972254 73 645303949 646411025 999 1000 2 4233.7146267166 4236.0936259607 8469.8082526773 35868828.748379
11240	107972327 73 645303949 646411025 999 1000 2 3686.0215271089 3686.5327527334 7372.5542798424 27177278.435287
11241	107972400 66 645303949 646411025 999 1000 2 3707.5237770229 3707.698 7415.2217770229 27492757.016394
11242	107972466 73 645303949 646411025 999 1000 2 4684.5895744872 4687.1816842105 9371.7712586978 43915051.622193
11243	107972539 75 645303949 646411025 999 1000 2 0.26402096112724 0.45441625299863 0.71843721412588 0.27620119890387
11244	107972614 73 645303949 646411025 999 1000 2 2.9035870517628 3.6353752930711 6.538962344834 21.646771288637
11245	107972687 73 645303949 646411025 999 1000 2 11.105427292067 11.518984550548 22.624411842615 256.01752041515
11246	107972760 73 645303949 646411025 999 1000 2 11.078722356346 11.080044012393 22.158766368739 245.50546436558
11247	107972833 73 645303949 646411025 999 1000 2 2.1817249305313 4.0129789992701 6.1947039298015 20.863924121085
11248	107972906 37 646411025 646411025 1000 1000 1 7561.5523609648 7561.5523609648 7561.5523609648 57177074.107612
11249	107972943 37 646411025 646411025 1000 1000 1 2423.9580223281 2423.9580223281 2423.9580223281 5875572.4940088
11250	107972980 37 646411025 646411025 1000 1000 1 5038.7365144734 5038.7365144734 5038.7365144734 25388865.662288
11251	107973017 37 646411025 646411025 1000 1000 1 5339.8283214881 5339.8283214881 5339.8283214881 28513766.502966
11252	107973054 37 646411025 646411025 1000 1000 1 7890.1688629022 7890.1688629022 7890.1688629022 62254764.685111
11253	107973091 37 646411025 646411025 1000 1000 1 3100.4889230727 3100.4889230727 3100.4889230727 9613031.5620967
11254	107973128 39 646411025 646411025 1000 1000 1 -0.41355725848116 -0.41355725848116 -0.41355725848116 0.17102960604245
11255	107973167 27 646411025 646411025 1000 1000 1 0.973 0.973 0.973 0.946729
11256	107973194 41 646411025 646411025 1000 1000 1 -0.0013216560473666 -0.0013216560473666 -0.0013216560473666 1.7467747075406e-06
11257	107973235 37 646411025 646411025 1000 1000 1 1.7665238470424 1.7665238470424 1.7665238470424 3.1206065021695
11258	107973272 37 646411025 646411025 1000 1000 1 1.8312540687388 1.8312540687388 1.8312540687388 3.3534914642723
11259	107973309 37 646411025 646411025 1000 1000 1 3.0806130664489 3.0806130664489 3.0806130664489 9.4901768651756
11260	107973346 37 646411025 646411025 1000 1000 1 2.4332101943437 2.4332101943437 2.4332101943437 5.9205118498581
11261	107973383 37 646411025 646411025 1000 1000 1 2.5980619394919 2.5980619394919 2.5980619394919 6.7499258414364

