version 3
run WithChannelSwitching-0-20230717-22:36:23-32755
attr configname WithChannelSwitching
attr datetime 20230717-22:36:23
attr datetimef 20230717-223623
attr experiment WithChannelSwitching
attr inifile omnetpp.ini
attr iterationvars ""
attr iterationvarsd ""
attr iterationvarsf ""
attr measurement ""
attr network Scenario
attr processid 32755
attr repetition 0
attr replication #0
attr resultdir results
attr runnumber 0
attr seedset 0
config image-path ../../images:../../../../../veins-framework/src/veins/images
config *.**.nic.mac1609_4.useServiceChannel true
config *.node[*].appl.dataOnSch true
config *.rsu[*].appl.dataOnSch true
config cmdenv-express-mode true
config cmdenv-autoflush true
config cmdenv-status-frequency 1s
config **.cmdenv-log-level info
config image-path ../../images
config network Scenario
config debug-on-errors true
config print-undisposed true
config sim-time-limit 200s
config **.scalar-recording true
config **.vector-recording true
config *.playgroundSizeX 12500m
config *.playgroundSizeY 7500m
config *.playgroundSizeZ 50m
config *.annotations.draw true
config *.obstacles.obstacles "xmldoc(\"config.xml\", \"//AnalogueModel[@type='SimpleObstacleShadowing']/obstacles\")"
config *.manager.updateInterval 1s
config *.manager.host "\"localhost\""
config *.manager.port 9999
config *.manager.autoShutdown true
config *.manager.launchConfig "xmldoc(\"sumo.launchd.xml\")"
config *.rsu[0].mobility.x 2000
config *.rsu[0].mobility.y 2000
config *.rsu[0].mobility.z 3
config *.rsu[*].applType "\"RSUAggregationApplication\""
config *.rsu[*].appl.headerLength "80 bit"
config *.rsu[*].appl.sendBeacons false
config *.rsu[*].appl.dataOnSch false
config *.rsu[*].appl.beaconInterval 1s
config *.rsu[*].appl.beaconUserPriority 7
config *.rsu[*].appl.dataUserPriority 5
config *.rsu[*].nic.phy80211p.antennaOffsetZ "0 m"
config *.connectionManager.sendDirect true
config *.connectionManager.maxInterfDist 2600m
config *.connectionManager.drawMaxIntfDist false
config *.**.nic.mac1609_4.useServiceChannel false
config *.**.nic.mac1609_4.txPower 20mW
config *.**.nic.mac1609_4.bitrate 6Mbps
config *.**.nic.phy80211p.minPowerLevel -110dBm
config *.**.nic.phy80211p.useNoiseFloor true
config *.**.nic.phy80211p.noiseFloor -98dBm
config *.**.nic.phy80211p.decider "xmldoc(\"config.xml\")"
config *.**.nic.phy80211p.analogueModels "xmldoc(\"config.xml\")"
config *.**.nic.phy80211p.usePropagationDelay true
config *.**.nic.phy80211p.antenna "xmldoc(\"antenna.xml\", \"/root/Antenna[@id='monopole']\")"
config *.node[*].nic.phy80211p.antennaOffsetY "0 m"
config *.node[*].nic.phy80211p.antennaOffsetZ "1.895 m"
config *.node[*].applType "\"ApplicationLayerTest\""
config *.node[*].appl.headerLength "80 bit"
config *.node[*].appl.sendBeacons false
config *.node[*].appl.dataOnSch false
config *.node[*].appl.beaconInterval 1s
config *.node[*].veinsmobility.x 0
config *.node[*].veinsmobility.y 0
config *.node[*].veinsmobility.z 0
config *.node[*].veinsmobility.setHostSpeed false
config *.node[*0].veinsmobility.accidentCount 1
config *.node[*0].veinsmobility.accidentStart 73s
config *.node[*0].veinsmobility.accidentDuration 50s

vector 0 Scenario.node[0].veinsmobility posx ETV
vector 1 Scenario.node[0].veinsmobility posy ETV
vector 2 Scenario.node[1].veinsmobility posx ETV
vector 3 Scenario.node[1].veinsmobility posy ETV
vector 4 Scenario.node[2].veinsmobility posx ETV
vector 5 Scenario.node[2].veinsmobility posy ETV
vector 6 Scenario.node[0].veinsmobility speed ETV
vector 7 Scenario.node[3].veinsmobility posx ETV
vector 8 Scenario.node[3].veinsmobility posy ETV
vector 9 Scenario.node[4].veinsmobility posx ETV
vector 10 Scenario.node[4].veinsmobility posy ETV
vector 11 Scenario.node[0].veinsmobility acceleration ETV
vector 12 Scenario.node[0].veinsmobility co2emission ETV
vector 13 Scenario.node[1].veinsmobility speed ETV
vector 14 Scenario.node[2].veinsmobility speed ETV
vector 15 Scenario.node[5].veinsmobility posx ETV
vector 16 Scenario.node[5].veinsmobility posy ETV
vector 17 Scenario.node[6].veinsmobility posx ETV
vector 18 Scenario.node[6].veinsmobility posy ETV
vector 19 Scenario.node[1].veinsmobility acceleration ETV
vector 20 Scenario.node[1].veinsmobility co2emission ETV
vector 21 Scenario.node[2].veinsmobility acceleration ETV
vector 22 Scenario.node[2].veinsmobility co2emission ETV
vector 23 Scenario.node[3].veinsmobility speed ETV
vector 24 Scenario.node[4].veinsmobility speed ETV
vector 25 Scenario.node[7].veinsmobility posx ETV
vector 26 Scenario.node[7].veinsmobility posy ETV
vector 27 Scenario.node[3].veinsmobility acceleration ETV
vector 28 Scenario.node[3].veinsmobility co2emission ETV
vector 29 Scenario.node[4].veinsmobility acceleration ETV
vector 30 Scenario.node[4].veinsmobility co2emission ETV
vector 31 Scenario.node[5].veinsmobility speed ETV
vector 32 Scenario.node[6].veinsmobility speed ETV
vector 33 Scenario.node[5].veinsmobility acceleration ETV
vector 34 Scenario.node[5].veinsmobility co2emission ETV
vector 35 Scenario.node[6].veinsmobility acceleration ETV
vector 36 Scenario.node[6].veinsmobility co2emission ETV
vector 37 Scenario.node[7].veinsmobility speed ETV
vector 38 Scenario.node[7].veinsmobility acceleration ETV
vector 39 Scenario.node[7].veinsmobility co2emission ETV
12	140	3	1.449073369372
12	259	4	0.973
12	418	5	0.973
12	598	6	0.973
12	779	7	0.973
12	960	8	3.5343836788024
12	1141	9	3.7498511457013
12	1322	10	2.3192868037086
12	1503	11	3.1881129026655
12	1684	12	7.214472918331
12	1865	13	9.126213343845
12	2046	14	8.8116601082678
12	2227	15	1.4846670797951
12	2408	16	5.2938773527775
12	2589	17	0.973
12	2770	18	6.1576557535633
12	2951	19	0.973
12	3132	20	2.4545377272471
12	3313	21	2.4671054867067
12	3494	22	4.9634264010066
12	3675	23	0.973
12	3856	24	2.4800415256822
12	4037	25	0.973
12	4218	26	5.1832374660359
12	4399	27	2.4754173290884
12	4580	28	0.973
12	4761	29	2.3334770285685
12	4942	30	2.5591092527349
12	5123	31	2.4914709571038
12	5346	32	0.973
12	5569	33	5.6386817654746
12	5798	34	3.3062978721251
12	6027	35	0.973
12	6256	36	2.5006376460633
12	6485	37	1.32482487328
12	6714	38	4.2363524380269
12	6943	39	0.973
12	7172	40	0.973
12	7401	41	0.973
12	7630	42	5.802544361164
12	7859	43	0.973
12	8088	44	5.5614682177144
12	8317	45	5.3347007705262
12	8546	46	5.9141956768752
12	8775	47	3.1644683237749
12	9004	48	0.973
12	9233	49	0.973
12	9462	50	5.2296771990556
12	9691	51	6.5251480537031
12	9920	52	2.3945437059397
12	10149	53	8.947710094592
12	10378	54	10.971424650438
12	10607	55	3.1726486427342
12	10836	56	3.0755625069926
12	11065	57	3.459617725409
12	11300	58	0.973
12	11535	59	1.1679368744968
12	11776	60	4.5127087239925
12	12011	61	3.703587018011
12	12246	62	0.973
12	12477	63	3.4067867938688
12	12714	64	3.2337226030162
12	12939	65	0.973
12	13158	66	4.0367983801013
12	13383	67	0.973
12	13608	68	1.5506440440579
11	140	3	-0.19634001890663
11	259	4	-0.71835363695864
11	418	5	-1.8257047914134
11	598	6	-4.4479361484293
11	779	7	-4.5
11	960	8	1.6594952662708
11	1141	9	1.398754352401
11	1322	10	0.47198592942691
11	1503	11	0.84077007367741
11	1684	12	2.2169354937272
11	1865	13	2.3636888966663
11	2046	14	1.91023722135
11	2227	15	-0.17183585401852
11	2408	16	0.84852697364986
11	2589	17	-0.90654725597706
11	2770	18	1.0672538143815
11	2951	19	-0.96059726236854
11	3132	20	0.10180837530643
11	3313	21	0.10157283318695
11	3494	22	0.74667251806241
11	3675	23	-0.55827539043967
11	3856	24	0.094676253735088
11	4037	25	-0.57976878371555
11	4218	26	0.82426850593183
11	4399	27	0.081521124555728
11	4580	28	-0.94449562700465
11	4761	29	0.072984927520157
11	4942	30	0.13272580881603
11	5123	31	0.10924501034897
11	5346	32	-0.41833191486075
11	5569	33	0.9502051333664
11	5798	34	0.2972612538375
11	6027	35	-0.78963715692517
11	6256	36	0.10631152514834
11	6485	37	-0.22028133657295
11	6714	38	0.56919715558179
11	6943	39	-0.88149275997645
11	7172	40	-4.5
11	7401	41	-3.5334366937634
11	7630	42	2.1107127646104
11	7859	43	-1.2260192128364
11	8088	44	1.8354299662868
11	8317	45	1.4463647838216
11	8546	46	1.4329721584218
11	8775	47	0.43778112460547
11	9004	48	-4.003757865591
11	9233	49	-3.9994764130563
11	9462	50	2.3656493975548
11	9691	51	2.2911964192521
11	9920	52	0.34303962381637
11	10149	53	2.5112010973739
11	10378	54	2.5746821876615
11	10607	55	0.3022245175238
11	10836	56	0.26195232574828
11	11065	57	0.34983377945609
11	11300	58	-0.69006379465573
11	11535	59	-0.26175374507438
11	11776	60	0.65790316273924
11	12011	61	0.40953698498197
11	12246	62	-0.4943275306141
11	12477	63	0.33762869206257
11	12714	64	0.27681148459669
11	12939	65	-1.1486279197736
11	13158	66	0.53165988763794
11	13383	67	-0.44045267051552
11	13608	68	-0.15031289027538
6	61	2	15.406206221476
6	140	3	15.209866202569
6	259	4	14.49151256561
6	418	5	12.665807774197
6	598	6	8.2178716257677
6	779	7	3.7178716257677
6	960	8	5.3773668920385
6	1141	9	6.7761212444395
6	1322	10	7.2481071738664
6	1503	11	8.0888772475438
6	1684	12	10.305812741271
6	1865	13	12.669501637937
6	2046	14	14.579738859287
6	2227	15	14.407903005269
6	2408	16	15.256429978919
6	2589	17	14.349882722942
6	2770	18	15.417136537323
6	2951	19	14.456539274955
6	3132	20	14.558347650261
6	3313	21	14.659920483448
6	3494	22	15.40659300151
6	3675	23	14.848317611071
6	3856	24	14.942993864806
6	4037	25	14.36322508109
6	4218	26	15.187493587022
6	4399	27	15.269014711578
6	4580	28	14.324519084573
6	4761	29	14.397504012093
6	4942	30	14.530229820909
6	5123	31	14.639474831258
6	5346	32	14.221142916398
6	5569	33	15.171348049764
6	5798	34	15.468609303601
6	6027	35	14.678972146676
6	6256	36	14.785283671825
6	6485	37	14.565002335252
6	6714	38	15.134199490833
6	6943	39	14.252706730857
6	7172	40	9.752706730857
6	7401	41	6.2192700370936
6	7630	42	8.329982801704
6	7859	43	7.1039635888676
6	8088	44	8.9393935551544
6	8317	45	10.385758338976
6	8546	46	11.818730497398
6	8775	47	12.256511622003
6	9004	48	8.2527537564123
6	9233	49	4.253277343356
6	9462	50	6.6189267409108
6	9691	51	8.9101231601629
6	9920	52	9.2531627839793
6	10149	53	11.764363881353
6	10378	54	14.339046069015
6	10607	55	14.641270586538
6	10836	56	14.903222912287
6	11065	57	15.253056691743
6	11300	58	14.562992897087
6	11535	59	14.301239152013
6	11776	60	14.959142314752
6	12011	61	15.368679299734
6	12246	62	14.87435176912
6	12477	63	15.211980461182
6	12714	64	15.488791945779
6	12939	65	14.340164026006
6	13158	66	14.871823913643
6	13383	67	14.431371243128
6	13608	68	14.281058352853
1	21	1	3130.1488200841
1	61	2	3114.829674286
1	140	3	3099.702533817
1	259	4	3085.285811306
1	418	5	3072.6859290908
1	598	6	3064.5121373951
1	779	7	3060.8142081009
1	960	8	3055.4415790458
1	1141	9	3049.594001058
1	1322	10	3052.5172636325
1	1503	11	3057.8637762857
1	1684	12	3064.4566925682
1	1865	13	3072.6012093662
1	2046	14	3080.0255396449
1	2227	15	3086.9661265741
1	2408	16	3092.6236587574
1	2589	17	3092.5091829721
1	2770	18	3092.3861931995
1	2951	19	3091.8378343952
1	3132	20	3088.6910037027
1	3313	21	3087.1251686312
1	3494	22	3086.4407308409
1	3675	23	3082.8282138175
1	3856	24	3082.2452965018
1	4037	25	3081.684995622
1	4218	26	3082.6590253225
1	4399	27	3095.5093259848
1	4580	28	3109.8003198244
1	4761	29	3124.0240374862
1	4942	30	3131.296349161
1	5123	31	3130.7186513225
1	5346	32	3129.7647772123
1	5569	33	3128.7471686976
1	5798	34	3127.7096215734
1	6027	35	3126.564175418
1	6256	36	3124.8494993353
1	6485	37	3122.8353785605
1	6714	38	3118.708003757
1	6943	39	3112.4748028285
1	7172	40	3108.3240383037
1	7401	41	3106.5755727761
1	7630	42	3105.337313431
1	7859	43	3100.2585938016
1	8088	44	3091.8437029361
1	8317	45	3082.1969933282
1	8546	46	3071.6979649712
1	8775	47	3061.043222091
1	9004	48	3054.5202464712
1	9233	49	3051.3333796128
1	9462	50	3048.966854371
1	9691	51	3052.413298681
1	9920	52	3058.1880292975
1	10149	53	3068.0133958499
1	10378	54	3082.0105034674
1	10607	55	3096.1368471945
1	10836	56	3107.0739710295
1	11065	57	3114.6681671211
1	11300	58	3120.5995719821
1	11535	59	3126.4243663787
1	11776	60	3132.5171201189
1	12011	61	3138.7766754006
1	12246	62	3144.9089407345
1	12477	63	3151.2135187284
1	12714	64	3157.6328207451
1	12939	65	3163.5760759824
1	13158	66	3169.4422181402
1	13383	67	3174.6462576628
1	13608	68	3179.6907283083
0	21	1	3622.4791520242
0	61	2	3624.1078358025
0	140	3	3625.6847281593
0	259	4	3627.1483785473
0	418	5	3628.4330729982
0	598	6	3629.2793494111
0	779	7	3629.6622158279
0	960	8	3629.8204743811
0	1141	9	3627.7001215546
0	1322	10	3621.3631084805
0	1503	11	3615.3040981142
0	1684	12	3607.3835980068
0	1865	13	3597.6795166048
0	2046	14	3585.1504040044
0	2227	15	3572.5262302336
0	2408	16	3558.7082898673
0	2589	17	3544.3594656529
0	2770	18	3528.9434663493
0	2951	19	3514.5090884663
0	3132	20	3500.2991136747
0	3313	21	3485.781125662
0	3494	22	3470.3888802445
0	3675	23	3456.3863994676
0	3856	24	3441.4539427218
0	4037	25	3427.1008459332
0	4218	26	3412.1378349574
0	4399	27	3408.0416887639
0	4580	28	3407.0505744538
0	4761	29	3405.5625236431
0	4942	30	3394.0124208852
0	5123	31	3379.4277413044
0	5346	32	3365.2378270957
0	5569	33	3350.0997943426
0	5798	34	3334.6651531021
0	6027	35	3320.033843791
0	6256	36	3305.3527287502
0	6485	37	3290.9279162378
0	6714	38	3276.5587620981
0	6943	39	3263.7415945614
0	7172	40	3254.9269576714
0	7401	41	3248.9586378415
0	7630	42	3240.8940397989
0	7859	43	3234.5064878081
0	8088	44	3231.7701933679
0	8317	45	3228.2146918267
0	8546	46	3223.0530835541
0	8775	47	3217.2508033857
0	9004	48	3212.3572784563
0	9233	49	3209.6196315886
0	9462	50	3203.7188289976
0	9691	51	3195.6735597047
0	9920	52	3188.4824953574
0	10149	53	3182.5763097661
0	10378	54	3179.915461933
0	10607	55	3178.2243782892
0	10836	56	3168.7267982558
0	11065	57	3155.5281648596
0	11300	58	3142.2267198495
0	11535	59	3129.1643536518
0	11776	60	3115.501076446
0	12011	61	3101.4637392017
0	12246	62	3087.9112751369
0	12477	63	3074.0661116856
0	12714	64	3059.9690086359
0	12939	65	3046.9173277345
0	13158	66	3033.256660219
0	13383	67	3019.7951906376
0	13608	68	3006.4418281629
2	61	2	7212.2148593444
2	140	3	7210.7083561639
2	259	4	7207.6956875486
2	418	5	7202.1563083706
2	598	6	7194.2440006696
2	779	7	7184.0413510542
2	960	8	7171.8170641366
2	1141	9	7158.256165051
2	1322	10	7144.9455857744
2	1503	11	7130.768310752
2	1684	12	7121.0324758167
2	1865	13	7115.818491703
2	2046	14	7111.0512661179
2	2227	15	7111.521930616
2	2408	16	7113.2744285392
2	2589	17	7115.2870585224
2	2770	18	7117.568617957
2	2951	19	7119.995104533
2	3132	20	7121.8003613348
2	3313	21	7121.6724865202
2	3494	22	7116.6246436381
2	3675	23	7108.2485666742
2	3856	24	7097.9348631344
2	4037	25	7086.0361029136
2	4218	26	7072.2309081102
2	4399	27	7058.2578897566
2	4580	28	7044.6545125849
2	4761	29	7030.7892921671
2	4942	30	7017.0340266255
2	5123	31	7003.7903083197
2	5346	32	6991.8710042531
2	5569	33	6980.9052756115
2	5798	34	6970.0742864494
2	6027	35	6958.5485728742
2	6256	36	6947.5780044805
2	6485	37	6936.297883766
2	6714	38	6925.2102298644
2	6943	39	6913.972292307
2	7172	40	6902.1267491843
2	7401	41	6891.7204104747
2	7630	42	6884.6409504791
2	7859	43	6881.2287840838
2	8088	44	6877.2389849937
2	8317	45	6878.8750945639
2	8546	46	6885.1538154252
2	8775	47	6892.5504579619
2	9004	48	6901.3475751479
2	9233	49	6911.2821342264
2	9462	50	6922.1375938544
2	9691	51	6934.2682698491
2	9920	52	6947.1842090621
2	10149	53	6961.3964326315
2	10378	54	6976.3764949013
2	10607	55	6992.2114298161
2	10836	56	7008.0800751229
2	11065	57	7024.3909291685
2	11300	58	7041.063648425
2	11535	59	7057.2785670933
2	11776	60	7073.4851989967
2	12011	61	7089.8837935865
2	12246	62	7106.3942959744
2	12477	63	7122.3037398993
2	12714	64	7138.3066964692
2	12939	65	7154.2582073684
2	13158	66	7170.4725980799
2	13383	67	7187.231491488
2	13608	68	7209.6311332202
2	13833	69	7231.4286421788
2	14034	70	7251.6499688059
2	14241	71	7269.7350050417
2	14442	72	7287.3428268414
2	14643	73	7305.1783808203
2	14838	74	7322.8393620954
2	15033	75	7339.6256034908
2	15228	76	7355.2556662069
2	15423	77	7370.7865231733
2	15618	78	7386.4554949442
2	15813	79	7399.9048674861
2	16008	80	7410.9318967493
2	16203	81	7419.8414548484
2	16442	82	7425.7746565841
2	16677	83	7429.498051864
2	16912	84	7431.3358225529
2	17147	85	7431.8076882483
2	17382	86	7431.9821079805
2	17617	87	7432.0736350976
2	17852	88	7432.07753469
2	18087	89	7432.0782883036
2	18326	90	7432.078658178
2	18565	91	7432.0787948436
2	18804	92	7432.0788672268
2	19043	93	7432.0788672268
2	19282	94	7432.0788672268
2	19536	95	7432.0788672268
2	19807	96	7432.8523968633
2	20078	97	7433.4686699338
2	20349	98	7429.9378216218
2	20620	99	7423.6171526185
2	20897	100	7415.2944321863
2	21174	101	7405.4268881038
2	21451	102	7394.062643101
2	21728	103	7380.419301067
2	22005	104	7365.0871147309
2	22278	105	7348.5776500561
2	22545	106	7330.0535667146
2	22812	107	7310.5257828155
2	23079	108	7288.914219701
2	23350	109	7265.2855137098
2	23621	110	7241.5824398418
2	23892	111	7217.7831459336
2	24163	112	7193.9118012662
2	24434	113	7170.3536465505
2	24779	114	7146.6099070193
2	25124	115	7122.8008386843
2	25469	116	7099.0151948713
2	25814	117	7075.637285507
2	26159	118	7052.2077924491
2	26504	119	7029.2179605376
3	61	2	3012.6589218262
3	140	3	3012.9254806543
3	259	4	3013.4585385501
3	418	5	3014.4386695189
3	598	6	3015.838663555
3	779	7	3017.6439078849
3	960	8	3019.8068582436
3	1141	9	3022.1245476275
3	1322	10	3024.2902383887
3	1503	11	3026.5969444229
3	1684	12	3028.1810082968
3	1865	13	3029.3793755902
3	2046	14	3034.3014049528
3	2227	15	3041.7674492974
3	2408	16	3051.2665874556
3	2589	17	3062.1757303529
3	2770	18	3074.5425628594
3	2951	19	3087.6949500428
3	3132	20	3097.4800593682
3	3313	21	3102.8647639757
3	3494	22	3105.4286118747
3	3675	23	3106.4419805059
3	3856	24	3108.2913177446
3	4037	25	3110.4248695077
3	4218	26	3112.9002616634
3	4399	27	3115.6563623751
3	4580	28	3118.8238172683
3	4761	29	3122.3101202868
3	4942	30	3127.0433815594
3	5123	31	3131.6041322343
3	5346	32	3138.3400384364
3	5569	33	3146.1410805252
3	5798	34	3153.8413728346
3	6027	35	3162.0354838466
3	6256	36	3169.8349189703
3	6485	37	3177.8554026631
3	6714	38	3185.7394876765
3	6943	39	3193.7304347122
3	7172	40	3202.1534311224
3	7401	41	3209.5530541439
3	7630	42	3214.5870374329
3	7859	43	3217.0133225767
3	8088	44	3221.8582767723
3	8317	45	3229.5410192547
3	8546	46	3238.2841690141
3	8775	47	3248.5840302192
3	9004	48	3260.834059279
3	9233	49	3274.6678520247
3	9462	50	3289.783933911
3	9691	51	3306.7740414803
3	9920	52	3325.7002688157
3	10149	53	3346.8515325762
3	10378	54	3369.1603259846
3	10607	55	3392.7487571373
3	10836	56	3415.681144759
3	11065	57	3438.9416253289
3	11300	58	3462.7106238214
3	11535	59	3485.7884855645
3	11776	60	3508.6623836308
3	12011	61	3532.3797055079
3	12246	62	3556.2834169056
3	12477	63	3579.3118715587
3	12714	64	3602.480567857
3	12939	65	3625.5688714671
3	13158	66	3649.0525996954
3	13383	67	3672.0545439546
3	13608	68	3690.0577750662
3	13833	69	3707.577054889
3	14034	70	3728.286653271
3	14241	71	3750.4184356772
3	14442	72	3771.9662211302
3	14643	73	3793.7926965992
3	14838	74	3815.4055366049
3	15033	75	3839.1774175087
3	15228	76	3862.9879145179
3	15423	77	3886.6472836493
3	15618	78	3910.5124436465
3	15813	79	3930.9961535214
3	16008	80	3947.7905777598
3	16203	81	3961.4322107527
3	16442	82	3971.7171730118
3	16677	83	3978.1613375716
3	16912	84	3981.3388276492
3	17147	85	3982.1546794712
3	17382	86	3982.4562497225
3	17617	87	3982.6144993388
3	17852	88	3982.6212417014
3	18087	89	3982.622544693
3	18326	90	3982.6231842027
3	18565	91	3982.6234204964
3	18804	92	3982.6235456464
3	19043	93	3982.6235456464
3	19282	94	3982.6235456464
3	19536	95	3982.6235456464
3	19807	96	3984.1622986413
3	20078	97	3987.2912390527
3	20349	98	3991.116143399
3	20620	99	3994.1901649009
3	20897	100	3998.2378727542
3	21174	101	4003.0368968235
3	21451	102	4008.563832892
3	21728	103	4015.2438758537
3	22005	104	4024.2205861631
3	22278	105	4033.8865710722
3	22545	106	4044.7320777897
3	22812	107	4057.1809138139
3	23079	108	4071.0823872323
3	23350	109	4086.2813724471
3	23621	110	4102.6225276248
3	23892	111	4119.0327123507
3	24163	112	4135.4925778055
3	24434	113	4151.7364912668
3	24779	114	4168.110374227
3	25124	115	4184.5315590611
3	25469	116	4200.9359172994
3	25814	117	4217.0590713788
3	26159	118	4233.8546963707
3	26504	119	4250.6540493914
4	61	2	6136.3569402558
4	140	3	6138.0679516084
4	259	4	6141.0202699819
4	418	5	6145.3851378113
4	598	6	6151.2923536893
4	779	7	6158.4700952895
4	960	8	6167.5206197281
4	1141	9	6178.8545837852
4	1322	10	6191.2993349876
4	1503	11	6203.5598352994
4	1684	12	6215.9446555264
4	1865	13	6226.7466925902
4	2046	14	6234.7913035884
4	2227	15	6238.6265461411
4	2408	16	6240.9399030366
4	2589	17	6238.5500695962
4	2770	18	6234.2201521658
4	2951	19	6228.6023142548
4	3132	20	6222.8651621918
4	3313	21	6219.3340196604
4	3494	22	6214.9791587687
4	3675	23	6209.5424511671
4	3856	24	6203.3272057846
4	4037	25	6196.7865075365
4	4218	26	6190.7994685697
4	4399	27	6184.791206545
4	4580	28	6180.3683120107
4	4761	29	6176.1122970184
4	4942	30	6171.9683548331
4	5123	31	6168.8811750386
4	5346	32	6166.276683337
4	5569	33	6167.4010747892
4	5798	34	6173.1389204742
4	6027	35	6180.9912092536
4	6256	36	6190.7387832124
4	6485	37	6202.7015833706
4	6714	38	6216.3533706694
4	6943	39	6231.8820975583
4	7172	40	6244.5841348126
4	7401	41	6257.3832989792
4	7630	42	6270.2735534615
4	7859	43	6283.4132792992
4	8088	44	6295.3504550305
4	8317	45	6306.8704927031
4	8546	46	6318.7707837781
4	8775	47	6330.9804720361
4	9004	48	6342.605881309
4	9233	49	6354.6582765361
4	9462	50	6366.9077644734
4	9691	51	6379.3051001047
4	9920	52	6391.7104762387
4	10149	53	6404.3189937775
4	10378	54	6416.1014239611
4	10607	55	6428.4705037366
4	10836	56	6442.4017434421
4	11065	57	6456.4650314521
4	11300	58	6472.0521676932
4	11535	59	6490.3497644897
4	11776	60	6509.8413604507
4	12011	61	6531.1876749556
4	12246	62	6553.5306111593
4	12477	63	6575.9149774086
4	12714	64	6599.0157331174
4	12939	65	6621.3379025403
4	13158	66	6643.5245303577
4	13383	67	6661.4323258111
4	13608	68	6676.1427665785
4	13833	69	6687.1715014974
4	14034	70	6695.1825470333
4	14241	71	6699.0596191607
4	14442	72	6699.6328542448
4	14643	73	6699.7931931935
4	14838	74	6699.8853329428
4	15033	75	6699.9180721617
4	15228	76	6699.9374654789
4	15423	77	6699.9448806585
4	15618	78	6699.9464286976
4	15813	79	6699.9466765551
4	16008	80	6699.9466765551
4	16203	81	6699.9466765551
4	16442	82	6699.9466765551
4	16677	83	6699.9466765551
4	16912	84	6699.9466765551
4	17147	85	6699.9466765551
4	17382	86	6699.9466765551
4	17617	87	6699.9466765551
4	17852	88	6699.9466765551
4	18087	89	6699.9466765551
4	18326	90	6699.9466765551
4	18565	91	6699.9466765551
4	18804	92	6699.9466765551
4	19043	93	6699.9466765551
4	19282	94	6699.9466765551
4	19536	95	6699.9466765551
4	19807	96	6701.3410513795
4	20078	97	6703.3645078246
4	20349	98	6703.1458806109
4	20620	99	6699.5833169346
4	20897	100	6694.8563494268
4	21174	101	6689.1953272611
4	21451	102	6682.813778843
4	21728	103	6675.4340483383
4	22005	104	6666.9497584579
4	22278	105	6657.3185807425
4	22545	106	6646.70038512
4	22812	107	6638.4175289608
4	23079	108	6632.2818487437
4	23350	109	6628.2933444688
4	23621	110	6626.4576464787
4	23892	111	6626.4249306005
4	24163	112	6626.399461329
4	24434	113	6626.3955065272
4	24779	114	6626.3949517177
4	25124	115	6625.4569804429
4	25469	116	6623.7600757758
4	25814	117	6621.2066664088
4	26159	118	6618.0300988661
4	26504	119	6614.0518339097
5	61	2	3640.6227449235
5	140	3	3639.726031644
5	259	4	3638.1787695016
5	418	5	3635.8912131156
5	598	6	3632.7915952616
5	779	7	3628.9536319609
5	960	8	3624.1142851883
5	1141	9	3618.0539753407
5	1322	10	3611.3997237582
5	1503	11	3604.8439917653
5	1684	12	3598.2217854831
5	1865	13	3592.4458988417
5	2046	14	3588.1444174706
5	2227	15	3585.5893360595
5	2408	16	3580.3942444454
5	2589	17	3573.9415112653
5	2770	18	3566.6506799111
5	2951	19	3557.1912134331
5	3132	20	3547.530842579
5	3313	21	3541.5850098701
5	3494	22	3533.9447483173
5	3675	23	3524.0020143299
5	3856	24	3511.9542150783
5	4037	25	3499.2755492158
5	4218	26	3487.6701114342
5	4399	27	3475.1564587877
5	4580	28	3462.4995218633
5	4761	29	3449.721058245
5	4942	30	3437.2790873998
5	5123	31	3428.0099906605
5	5346	32	3420.1901398111
5	5569	33	3413.1380208611
5	5798	34	3408.7631456526
5	6027	35	3404.3323751096
5	6256	36	3398.8321617609
5	6485	37	3392.0819741351
5	6714	38	3384.3787504353
5	6943	39	3375.6164357011
5	7172	40	3364.0677778811
5	7401	41	3352.0005845587
5	7630	42	3339.8475102807
5	7859	43	3327.4592316539
5	8088	44	3315.1213699137
5	8317	45	3302.3577899437
5	8546	46	3289.1729097271
5	8775	47	3275.6444973578
5	9004	48	3262.7602250628
5	9233	49	3249.4946081511
5	9462	50	3236.6851928467
5	9691	51	3224.1096902023
5	9920	52	3211.9082266582
5	10149	53	3199.3553658575
5	10378	54	3186.6354089711
5	10607	55	3173.2821228478
5	10836	56	3161.5942359801
5	11065	57	3150.1415094288
5	11300	58	3137.2507728989
5	11535	59	3124.6833791617
5	11776	60	3110.8165926856
5	12011	61	3095.6303151799
5	12246	62	3079.7350172163
5	12477	63	3063.5426355345
5	12714	64	3046.9118201991
5	12939	65	3030.8421081268
5	13158	66	3019.5684215547
5	13383	67	3008.726370577
5	13608	68	3000.171622012
5	13833	69	2993.9945583859
5	14034	70	2989.6541501023
5	14241	71	2986.8957759085
5	14442	72	2986.298820752
5	14643	73	2986.1318470882
5	14838	74	2986.0358946596
5	15033	75	2986.0018007144
5	15228	76	2985.9816049151
5	15423	77	2985.9738829004
5	15618	78	2985.9722708045
5	15813	79	2985.9720126909
5	16008	80	2985.9720126909
5	16203	81	2985.9720126909
5	16442	82	2985.9720126909
5	16677	83	2985.9720126909
5	16912	84	2985.9720126909
5	17147	85	2985.9720126909
5	17382	86	2985.9720126909
5	17617	87	2985.9720126909
5	17852	88	2985.9720126909
5	18087	89	2985.9720126909
5	18326	90	2985.9720126909
5	18565	91	2985.9720126909
5	18804	92	2985.9720126909
5	19043	93	2985.9720126909
5	19282	94	2985.9720126909
5	19536	95	2985.9720126909
5	19807	96	2984.2179801581
5	20078	97	2979.9629265815
5	20349	98	2973.8959357215
5	20620	99	2966.697234724
5	20897	100	2958.3268933864
5	21174	101	2947.9750242319
5	21451	102	2936.3055849868
5	21728	103	2922.8108481098
5	22005	104	2907.2962897596
5	22278	105	2889.7328417659
5	22545	106	2870.6206958458
5	22812	107	2855.3670825618
5	23079	108	2844.0676839648
5	23350	109	2836.7225000548
5	23621	110	2833.3284863176
5	23892	111	2833.2677282582
5	24163	112	2833.2204281825
5	24434	113	2833.2130835506
5	24779	114	2833.2120531901
5	25124	115	2831.47126024
5	25469	116	2828.3240940261
5	25814	117	2823.5884103744
5	26159	118	2817.692275078
5	26504	119	2810.3028560927
7	140	3	4277.5150731722
7	259	4	4275.0325643911
7	418	5	4270.5093503784
7	598	6	4264.1168856786
7	779	7	4255.8517462435
7	960	8	4245.7097433714
7	1141	9	4233.0816993321
7	1322	10	4219.7132331948
7	1503	11	4206.572345847
7	1684	12	4193.2142128302
7	1865	13	4179.6953862707
7	2046	14	4166.4326389238
7	2227	15	4153.9917222408
7	2408	16	4140.9784571874
7	2589	17	4128.7869244272
7	2770	18	4121.3262575541
7	2951	19	4114.7137634437
7	3132	20	4110.318662462
7	3313	21	4108.2232414226
7	3494	22	4108.1308454672
7	3675	23	4108.1163230681
7	3856	24	4108.1119489589
7	4037	25	4108.1116138425
7	4218	26	4108.1116138425
7	4399	27	4108.1116138425
7	4580	28	4108.1116138425
7	4761	29	4108.1116138425
7	4942	30	4108.1115522442
7	5123	31	4108.1115522442
7	5346	32	4108.1115522442
7	5569	33	4108.1115522442
7	5798	34	4108.1115522442
7	6027	35	4108.1115522442
7	6256	36	4108.1115522442
7	6485	37	4108.1115522442
7	6714	38	4108.1115522442
7	6943	39	4108.1115522442
7	7172	40	4108.1115522442
7	7401	41	4108.1115522442
7	7630	42	4108.1115522442
7	7859	43	4108.1115522442
7	8088	44	4108.1115522442
7	8317	45	4108.1115522442
7	8546	46	4108.1115522442
7	8775	47	4108.1115522442
7	9004	48	4108.1115522442
7	9233	49	4108.1115522442
7	9462	50	4107.4255187755
7	9691	51	4106.7154133228
7	9920	52	4106.4501573829
7	10149	53	4105.1876482704
7	10378	54	4098.865359335
7	10607	55	4087.706403613
7	10836	56	4074.8151480533
7	11065	57	4059.5621287077
7	11300	58	4041.9851930392
7	11535	59	4022.0997664792
7	11776	60	4000.0251106057
7	12011	61	3975.6747428056
7	12246	62	3950.1596301933
7	12477	63	3923.271360286
7	12714	64	3896.2921551862
7	12939	65	3870.2006988757
7	13158	66	3843.9598376215
7	13383	67	3817.3839492594
7	13608	68	3790.5629028058
7	13833	69	3764.406929087
7	14034	70	3737.5546276109
7	14241	71	3711.2079440603
7	14442	72	3685.281343426
7	14643	73	3658.8177367327
7	14838	74	3632.2243443153
7	15033	75	3605.6655161257
7	15228	76	3580.9477677338
7	15423	77	3554.4154178369
7	15618	78	3527.4969735278
7	15813	79	3500.9423806019
7	16008	80	3475.7618380739
7	16203	81	3454.0950345475
7	16442	82	3436.7578548767
7	16677	83	3423.3001806304
7	16912	84	3414.1690976493
7	17147	85	3409.3646059334
7	17382	86	3408.1846964016
7	17617	87	3408.1727722813
7	17852	88	3408.1725940289
7	18087	89	3408.1724867799
7	18326	90	3408.1724867799
7	18565	91	3408.1724867799
7	18804	92	3408.1724867799
7	19043	93	3408.1724867799
7	19282	94	3408.1724867799
7	19536	95	3408.1724867799
7	19807	96	3408.1724867799
7	20078	97	3408.1724867799
7	20349	98	3408.1724867799
7	20620	99	3408.1724867799
7	20897	100	3408.1724867799
7	21174	101	3408.1724867799
7	21451	102	3408.1724867799
7	21728	103	3408.1724867799
7	22005	104	3408.1724867799
7	22278	105	3408.1724867799
7	22545	106	3408.1724867799
7	22812	107	3408.1724867799
7	23079	108	3408.1724867799
7	23350	109	3408.1724867799
7	23621	110	3408.1724867799
7	23892	111	3408.1724867799
7	24163	112	3408.1724867799
7	24434	113	3408.1724867799
7	24779	114	3408.1724867799
7	25124	115	3408.1724867799
7	25469	116	3408.1724867799
7	25814	117	3408.1724867799
7	26159	118	3408.1724867799
7	26504	119	3408.1724867799
8	140	3	3116.3918055386
8	259	4	3117.1179593602
8	418	5	3118.4410359052
8	598	6	3120.310883338
8	779	7	3122.7285032201
8	960	8	3125.6951207806
8	1141	9	3129.3889254141
8	1322	10	3133.2993094773
8	1503	11	3137.1431249108
8	1684	12	3141.0504864529
8	1865	13	3145.0048521512
8	2046	14	3148.8843126163
8	2227	15	3152.5233809903
8	2408	16	3156.3298658743
8	2589	17	3161.8308006877
8	2770	18	3173.4125399761
8	2951	19	3184.5347043992
8	3132	20	3191.9272305715
8	3313	21	3195.451712703
8	3494	22	3195.607121992
8	3675	23	3195.631548556
8	3856	24	3195.638905774
8	4037	25	3195.6394694374
8	4218	26	3195.6394694374
8	4399	27	3195.6394694374
8	4580	28	3195.6394694374
8	4761	29	3195.6394694374
8	4942	30	3195.6395730453
8	5123	31	3195.6395730453
8	5346	32	3195.6395730453
8	5569	33	3195.6395730453
8	5798	34	3195.6395730453
8	6027	35	3195.6395730453
8	6256	36	3195.6395730453
8	6485	37	3195.6395730453
8	6714	38	3195.6395730453
8	6943	39	3195.6395730453
8	7172	40	3195.6395730453
8	7401	41	3195.6395730453
8	7630	42	3195.6395730453
8	7859	43	3195.6395730453
8	8088	44	3195.6395730453
8	8317	45	3195.6395730453
8	8546	46	3195.6395730453
8	8775	47	3195.6395730453
8	9004	48	3195.6395730453
8	9233	49	3195.6395730453
8	9462	50	3197.478208567
8	9691	51	3201.4593316901
8	9920	52	3207.2837956621
8	10149	53	3214.7470751207
8	10378	54	3221.4976703993
8	10607	55	3224.83725918
8	10836	56	3228.6952808003
8	11065	57	3233.2634237279
8	11300	58	3238.5299660057
8	11535	59	3244.4767154042
8	11776	60	3251.0858542555
8	12011	61	3258.3788036504
8	12246	62	3269.3559784328
8	12477	63	3277.4115988331
8	12714	64	3285.494463061
8	12939	65	3293.311361227
8	13158	66	3301.1585849966
8	13383	67	3309.0985692052
8	13608	68	3317.0585364067
8	13833	69	3324.7243158081
8	14034	70	3332.5941745926
8	14241	71	3340.3565326347
8	14442	72	3348.1240254077
8	14643	73	3356.2148278923
8	14838	74	3364.3431518268
8	15033	75	3372.4707467488
8	15228	76	3377.0603970847
8	15423	77	3386.3141866945
8	15618	78	3394.5332964055
8	15813	79	3402.1752088959
8	16008	80	3409.3221027169
8	16203	81	3415.5779813319
8	16442	82	3420.5929537344
8	16677	83	3424.4857359648
8	16912	84	3427.1270034619
8	17147	85	3428.5167562257
8	17382	86	3428.8580582051
8	17617	87	3428.8615073898
8	17852	88	3428.8615589513
8	18087	89	3428.8615899742
8	18326	90	3428.8615899742
8	18565	91	3428.8615899742
8	18804	92	3428.8615899742
8	19043	93	3428.8615899742
8	19282	94	3428.8615899742
8	19536	95	3428.8615899742
8	19807	96	3428.8615899742
8	20078	97	3428.8615899742
8	20349	98	3428.8615899742
8	20620	99	3428.8615899742
8	20897	100	3428.8615899742
8	21174	101	3428.8615899742
8	21451	102	3428.8615899742
8	21728	103	3428.8615899742
8	22005	104	3428.8615899742
8	22278	105	3428.8615899742
8	22545	106	3428.8615899742
8	22812	107	3428.8615899742
8	23079	108	3428.8615899742
8	23350	109	3428.8615899742
8	23621	110	3428.8615899742
8	23892	111	3428.8615899742
8	24163	112	3428.8615899742
8	24434	113	3428.8615899742
8	24779	114	3428.8615899742
8	25124	115	3428.8615899742
8	25469	116	3428.8615899742
8	25814	117	3428.8615899742
8	26159	118	3428.8615899742
8	26504	119	3428.8615899742
9	140	3	4801.231508283
9	259	4	4800.5780906452
9	418	5	4798.7711075676
9	598	6	4794.6460698881
9	779	7	4787.3891255158
9	960	8	4779.1746327425
9	1141	9	4773.2587312452
9	1322	10	4773.0415968738
9	1503	11	4771.5714697624
9	1684	12	4768.5365111516
9	1865	13	4765.3431089441
9	2046	14	4762.5989911614
9	2227	15	4759.1653829936
9	2408	16	4759.0733246597
9	2589	17	4762.2541910402
9	2770	18	4766.1274013679
9	2951	19	4770.5462099372
9	3132	20	4770.9181417941
9	3313	21	4769.5469466187
9	3494	22	4768.0694577949
9	3675	23	4765.1055729939
9	3856	24	4763.2879742002
9	4037	25	4760.5663475886
9	4218	26	4753.1111944591
9	4399	27	4742.9056864517
9	4580	28	4733.2437063986
9	4761	29	4723.1790826077
9	4942	30	4712.4712793049
9	5123	31	4702.5539662397
9	5346	32	4692.0841009854
9	5569	33	4681.9647019696
9	5798	34	4673.6023720623
9	6027	35	4666.7517680275
9	6256	36	4660.2509169776
9	6485	37	4652.9009716454
9	6714	38	4645.8586566834
9	6943	39	4640.1227754944
9	7172	40	4636.2345506164
9	7401	41	4632.1996495213
9	7630	42	4630.3329254612
9	7859	43	4630.2534475783
9	8088	44	4630.4573101134
9	8317	45	4630.5493452252
9	8546	46	4628.5127429859
9	8775	47	4626.3531397056
9	9004	48	4623.8864669359
9	9233	49	4621.6225862827
9	9462	50	4619.4636882265
9	9691	51	4617.161355224
9	9920	52	4615.006555172
9	10149	53	4612.8641865685
9	10378	54	4610.7852018938
9	10607	55	4608.5661248171
9	10836	56	4606.4167207164
9	11065	57	4604.3108808415
9	11300	58	4602.1559588627
9	11535	59	4599.858406866
9	11776	60	4597.5904460519
9	12011	61	4595.3406653124
9	12246	62	4593.1759385705
9	12477	63	4590.8647625282
9	12714	64	4588.5430133432
9	12939	65	4586.3773832455
9	13158	66	4584.0747416099
9	13383	67	4582.0493841038
9	13608	68	4579.942765291
9	13833	69	4578.0539254609
9	14034	70	4576.1645834483
9	14241	71	4574.1981861812
9	14442	72	4572.224545218
9	14643	73	4570.164355014
9	14838	74	4568.8776669967
9	15033	75	4568.8361242928
9	15228	76	4568.4954596618
9	15423	77	4565.2583763147
9	15618	78	4561.7927115707
9	15813	79	4557.763997484
9	16008	80	4553.7596804715
9	16203	81	4550.0458554079
9	16442	82	4546.2961659268
9	16677	83	4543.0656234878
9	16912	84	4541.356718106
9	17147	85	4541.863153757
9	17382	86	4546.049032517
9	17617	87	4553.0651676714
9	17852	88	4561.7727581972
9	18087	89	4571.7734825202
9	18326	90	4583.3866917646
9	18565	91	4597.0608259711
9	18804	92	4612.4803355937
9	19043	93	4629.1569687037
9	19282	94	4647.1706829966
9	19536	95	4667.3845246983
9	19807	96	4689.2230848285
9	20078	97	4712.0172439573
9	20349	98	4735.512095518
9	20620	99	4758.5293962291
9	20897	100	4781.5048950709
9	21174	101	4804.8593383838
9	21451	102	4828.1629433281
9	21728	103	4851.0089074693
9	22005	104	4873.9797137137
9	22278	105	4892.665133205
9	22545	106	4907.1211601017
9	22812	107	4917.2521310244
9	23079	108	4923.1785919665
9	23350	109	4925.7094287854
9	23621	110	4925.9363616534
9	23892	111	4926.0383270261
9	24163	112	4926.0622933727
9	24434	113	4926.0771393825
9	24779	114	4926.0775775729
9	25124	115	4926.0778970037
9	25469	116	4926.0778970037
9	25814	117	4926.0778970037
9	26159	118	4926.0778970037
9	26504	119	4926.0778970037
10	140	3	3853.9755362356
10	259	4	3855.2865158091
10	418	5	3858.911942745
10	598	6	3861.6566502304
10	779	7	3862.2068057964
10	960	8	3858.173298124
10	1141	9	3848.8067807112
10	1322	10	3837.2712069386
10	1503	11	3826.119932773
10	1684	12	3814.6485412947
10	1865	13	3804.3724000333
10	2046	14	3797.0282240756
10	2227	15	3792.8930745947
10	2408	16	3787.7907058315
10	2589	17	3780.6746958633
10	2770	18	3772.0098228368
10	2951	19	3762.1243758971
10	3132	20	3751.4600522647
10	3313	21	3739.9028357865
10	3494	22	3728.0543859189
10	3675	23	3716.8017566143
10	3856	24	3709.9010952115
10	4037	25	3701.2929286023
10	4218	26	3693.3960561556
10	4399	27	3687.0990405766
10	4580	28	3681.1425478923
10	4761	29	3675.2896283046
10	4942	30	3669.3627727332
10	5123	31	3664.0108376704
10	5346	32	3658.3607146391
10	5569	33	3651.972290174
10	5798	34	3643.1844971666
10	6027	35	3633.3169384536
10	6256	36	3624.4255046848
10	6485	37	3615.0867396329
10	6714	38	3606.1760553954
10	6943	39	3598.9184098093
10	7172	40	3593.8225561258
10	7401	41	3586.3192569475
10	7630	42	3576.7039033166
10	7859	43	3564.7206654648
10	8088	44	3552.5956984932
10	8317	45	3541.228161068
10	8546	46	3530.1447451834
10	8775	47	3519.1102758682
10	9004	48	3507.436596746
10	9233	49	3496.4614962928
10	9462	50	3485.2074194847
10	9691	51	3473.2056334934
10	9920	52	3461.9757464818
10	10149	53	3450.8115214723
10	10378	54	3439.9776002406
10	10607	55	3428.4136351244
10	10836	56	3417.226555489
10	11065	57	3406.295469712
10	11300	58	3395.1658381575
10	11535	59	3383.299558333
10	11776	60	3371.5861095446
10	12011	61	3359.9665562819
10	12246	62	3348.7862855852
10	12477	63	3336.8496409821
10	12714	64	3324.8583887489
10	12939	65	3313.6734524454
10	13158	66	3301.7808859124
10	13383	67	3290.7480668808
10	13608	68	3278.6748397349
10	13833	69	3267.8497240699
10	14034	70	3257.0217303509
10	14241	71	3245.7521258454
10	14442	72	3234.4410070479
10	14643	73	3222.6338665511
10	14838	74	3215.2597385863
10	15033	75	3205.8278907778
10	15228	76	3194.2063542693
10	15423	77	3182.9120993973
10	15618	78	3172.0130713846
10	15813	79	3160.4894973078
10	16008	80	3149.035707655
10	16203	81	3138.4128296577
10	16442	82	3127.6873665023
10	16677	83	3118.4468509674
10	16912	84	3113.2597069995
10	17147	85	3109.0578798718
10	17382	86	3106.6772020523
10	17617	87	3104.6001116247
10	17852	88	3102.022274606
10	18087	89	3099.0616120327
10	18326	90	3095.6235816606
10	18565	91	3091.5754251411
10	18804	92	3087.0117745524
10	19043	93	3082.0771252176
10	19282	94	3076.746830867
10	19536	95	3070.7655143836
10	19807	96	3064.303440444
10	20078	97	3057.5586028354
10	20349	98	3050.6064289247
10	20620	99	3043.7955632724
10	20897	100	3036.9970668775
10	21174	101	3030.0864400501
10	21451	102	3023.1908563985
10	21728	103	3016.4306895824
10	22005	104	3009.6650073254
10	22278	105	3004.2631478133
10	22545	106	3000.1026775565
10	22812	107	2997.1869661029
10	23079	108	2995.4813201011
10	23350	109	2994.7529407625
10	23621	110	2994.6876290794
10	23892	111	2994.6582832638
10	24163	112	2994.6513857066
10	24434	113	2994.6471129985
10	24779	114	2994.6469868866
10	25124	115	2994.6468949538
10	25469	116	2994.6468949538
10	25814	117	2994.6468949538
10	26159	118	2994.6468949538
10	26504	119	2994.6468949538
13	140	3	1.529956558696
13	259	4	3.0595701136393
13	418	5	5.6256167356856
13	598	6	8.0354872251628
13	779	7	10.361485390365
13	960	8	12.414595725434
13	1141	9	13.758327699389
13	1322	10	13.486077842076
13	1503	11	14.364200878603
13	1684	12	9.8642008786027
13	1865	13	5.3642008786027
13	2046	14	7.2532449729445
13	2227	15	7.5602386041279
13	2408	16	9.6600335571417
13	2589	17	11.093920807514
13	2770	18	12.576300609435
13	2951	19	13.375160928496
13	3132	20	9.9508484736586
13	3313	21	5.5128588235507
13	3494	22	5.9648504470045
13	3675	23	8.4380567601219
13	3856	24	10.478448064699
13	4037	25	12.088823430663
13	4218	26	14.025710183737
13	4399	27	14.241256639391
13	4580	28	13.966804568941
13	4761	29	14.297111878573
13	4942	30	14.547317251918
13	5123	31	14.007317079796
13	5346	32	13.822392472025
13	5569	33	13.457757086476
13	5798	34	13.289559767518
13	6027	35	14.141927082703
13	6256	36	13.460769892257
13	6485	37	13.841152207513
13	6714	38	13.605248991895
13	6943	39	13.789656493563
13	7172	40	14.535226753965
13	7401	41	12.769232381725
13	7630	42	8.6869428665799
13	7859	43	4.1869428665799
13	8088	44	6.3999020026254
13	8317	45	8.227145067295
13	8546	46	10.764580258187
13	8775	47	12.681205931581
13	9004	48	15.082255778224
13	9233	49	17.032242571092
13	9462	50	18.611028133281
13	9691	51	20.878115318082
13	9920	52	22.915811099806
13	10149	53	25.482107003517
13	10378	54	26.871103880852
13	10607	55	28.409990781278
13	10836	56	27.892502205901
13	11065	57	28.408514724311
13	11300	58	29.03260965558
13	11535	59	28.203959831165
13	11776	60	28.024641372159
13	12011	61	28.83596087721
13	12246	62	29.052817843028
13	12477	63	27.992600005481
13	12714	64	28.156912826153
13	12939	65	28.05695413762
13	13158	66	28.537343195163
13	13383	67	28.55568862703
13	13608	68	28.737757013168
13	13833	69	27.965247097717
13	14034	70	29.050825131557
13	14241	71	28.582423402032
13	14442	72	27.828211749427
13	14643	73	28.188130163926
13	14838	74	27.912227430439
13	15033	75	29.124403304595
13	15228	76	28.481585093204
13	15423	77	28.300809298887
13	15618	78	28.548632570112
13	15813	79	24.50387541051
13	16008	80	20.090524697098
13	16203	81	16.294321542074
13	16442	82	11.876301887736
13	16677	83	7.4434159938597
13	16912	84	3.6711209605391
13	17147	85	0.94259640517555
13	17382	86	0.34841993002543
13	17617	87	0.18283408267647
13	17852	88	0.0077898051665408
13	18087	89	0.0015054145057509
13	18326	90	0.00073885908435045
13	18565	91	0.0002730024764957
13	18804	92	0.00014459238273456
13	19043	93	0
13	19282	94	0
13	19536	95	0
13	19807	96	1.7257366852835
13	20078	97	3.2567491534865
13	20349	98	5.4609324884135
13	20620	99	7.0218790571904
13	20897	100	9.2460364987841
13	21174	101	10.962241671304
13	21451	102	12.624985415931
13	21728	103	15.177993431757
13	22005	104	17.749892308819
13	22278	105	19.112813634519
13	22545	106	21.445114037953
13	22812	107	23.138139156206
13	23079	108	25.672133914637
13	23350	109	28.068275358854
13	23621	110	28.731598543015
13	23892	111	28.90727102937
13	24163	112	28.994785845175
13	24434	113	28.614376793907
13	24779	114	28.839003591694
13	25124	115	28.924140305899
13	25469	116	28.896804030089
13	25814	117	28.401453870524
13	26159	118	28.771530417691
13	26504	119	28.44324074582
14	140	3	1.9318736586953
14	259	4	3.3334121888736
14	418	5	4.9282976239221
14	598	6	6.6714872650569
14	779	7	8.1399312750436
14	960	8	10.263764152653
14	1141	9	12.853303119191
14	1322	10	14.112993357117
14	1503	11	13.904043290318
14	1684	12	14.045028522397
14	1865	13	12.250070318376
14	2046	14	9.1230061358733
14	2227	15	4.6230061358733
14	2408	16	5.9658673460091
14	2589	17	6.9968818092834
14	2770	18	8.4803257554187
14	2951	19	11.002772291342
14	3132	20	11.236454085949
14	3313	21	6.9158914543938
14	3494	22	8.7942240377206
14	3675	23	11.330881697686
14	3856	24	13.55901172436
14	4037	25	14.269010919655
14	4218	26	13.061162761804
14	4399	27	13.887667012653
14	4580	28	13.409118375039
14	4761	29	13.469313410479
14	4942	30	13.114628625471
14	5123	31	9.7702175114356
14	5346	32	8.2426201662841
14	5569	33	7.5119377209745
14	5798	34	7.2886052048706
14	6027	35	9.0101543588039
14	6256	36	11.184910343977
14	6485	37	13.726784510532
14	6714	38	15.664822613069
14	6943	39	17.818527845171
14	7172	40	17.190860458732
14	7401	41	17.579174355337
14	7630	42	17.704283504829
14	7859	43	18.046923101846
14	8088	44	17.169714911481
14	8317	45	17.1822608536
14	8546	46	17.74941291836
14	8775	47	18.211428780727
14	9004	48	17.342351501215
14	9233	49	17.912035152585
14	9462	50	17.712043681008
14	9691	51	17.649408219162
14	9920	52	17.388774573816
14	10149	53	17.782265473356
14	10378	54	17.327036911821
14	10607	55	18.189753598849
14	10836	56	18.203220132309
14	11065	57	18.132762674953
14	11300	58	20.43625463656
14	11535	59	22.210970822897
14	11776	60	23.921488331341
14	12011	61	26.197732313386
14	12246	62	27.420858135695
14	12477	63	27.627901372492
14	12714	64	28.465864992669
14	12939	65	27.50611525261
14	13158	66	25.150854436023
14	13383	67	20.988476206646
14	13608	68	17.019335999483
14	13833	69	12.641396488939
14	14034	70	9.1117690449338
14	14241	71	4.8134488434521
14	14442	72	0.82765851855612
14	14643	73	0.23150344495698
14	14838	74	0.13303485871373
14	15033	75	0.047270123788811
14	15228	76	0.028000805729722
14	15423	77	0.010706317096569
14	15618	78	0.0022351174688769
14	15813	79	0.00035786601874089
14	16008	80	0
14	16203	81	0
14	16442	82	0
14	16677	83	0
14	16912	84	0
14	17147	85	0
14	17382	86	0
14	17617	87	0
14	17852	88	0
14	18087	89	0
14	18326	90	0
14	18565	91	0
14	18804	92	0
14	19043	93	0
14	19282	94	0
14	19536	95	0
14	19807	96	2.2478029529797
14	20078	97	4.7941486199619
14	20349	98	6.1647604812635
14	20620	99	8.0575262596831
14	20897	100	9.6143665681593
14	21174	101	11.798690522672
14	21451	102	13.30040982666
14	21728	103	15.380818837741
14	22005	104	17.682939171465
14	22278	105	20.030380462692
14	22545	106	21.859011893004
14	22812	107	17.359011893004
14	23079	108	12.859011893004
14	23350	109	8.3590118930045
14	23621	110	3.8590118930045
14	23892	111	0.069012820057501
14	24163	112	0.053726396758447
14	24434	113	0.0083424942375967
14	24779	114	0.0011703481700743
14	25124	115	1.9777320496308
14	25469	116	3.5763252430631
14	25814	117	5.3814586950735
14	26159	118	6.6985276894447
14	26504	119	8.3925624171773
15	259	4	3654.3657224812
15	418	5	3655.2216192923
15	598	6	3656.7112044713
15	779	7	3658.7532980712
15	960	8	3661.7519162744
15	1141	9	3665.4182115789
15	1322	10	3669.727068778
15	1503	11	3674.7738117554
15	1684	12	3680.0374004675
15	1865	13	3683.8151741555
15	2046	14	3685.7702515365
15	2227	15	3685.6002644182
15	2408	16	3679.3302005088
15	2589	17	3670.6448279558
15	2770	18	3659.938821105
15	2951	19	3647.4494707957
15	3132	20	3632.6122794377
15	3313	21	3618.3649927929
15	3494	22	3603.8253785512
15	3675	23	3589.0350853041
15	3856	24	3574.9832093653
15	4037	25	3561.1779354471
15	4218	26	3546.9228108375
15	4399	27	3532.9615396771
15	4580	28	3518.3395859279
15	4761	29	3504.3558526649
15	4942	30	3489.8730073984
15	5123	31	3476.7031424904
15	5346	32	3467.5018954187
15	5569	33	3461.3524475298
15	5798	34	3454.7961704323
15	6027	35	3454.5891031426
15	6256	36	3458.0861277333
15	6485	37	3462.3563862636
15	6714	38	3467.2645470652
15	6943	39	3472.9439062759
15	7172	40	3479.2536172126
15	7401	41	3486.3664732679
15	7630	42	3494.0748775068
15	7859	43	3501.9867628808
15	8088	44	3510.3275346781
15	8317	45	3519.4465320856
15	8546	46	3528.2522920676
15	8775	47	3537.7944771264
15	9004	48	3549.5802679325
15	9233	49	3564.3909594826
15	9462	50	3579.4424501867
15	9691	51	3594.1836047747
15	9920	52	3608.9932444105
15	10149	53	3625.3851793016
15	10378	54	3642.3632037193
15	10607	55	3662.7306850207
15	10836	56	3686.5492115588
15	11065	57	3712.8786509149
15	11300	58	3740.9694763742
15	11535	59	3770.1004318907
15	11776	60	3798.7225549693
15	12011	61	3827.6390381044
15	12246	62	3855.2694784154
15	12477	63	3879.277308052
15	12714	64	3900.2233121604
15	12939	65	3917.6464697046
15	13158	66	3935.976250491
15	13383	67	3954.9211945624
15	13608	68	3973.9866930651
15	13833	69	3993.1927366104
15	14034	70	4012.3307876746
15	14241	71	4031.4699132916
15	14442	72	4051.7023685394
15	14643	73	4072.8317561814
15	14838	74	4093.9904593474
15	15033	75	4117.4370058414
15	15228	76	4140.7165838867
15	15423	77	4164.0582634198
15	15618	78	4187.5034678549
15	15813	79	4209.6587469424
15	16008	80	4229.080269749
15	16203	81	4245.0003041879
15	16442	82	4259.3669297851
15	16677	83	4273.2680610921
15	16912	84	4287.1818247132
15	17147	85	4302.0780733477
15	17382	86	4318.7137339628
15	17617	87	4336.2936079295
15	17852	88	4354.0526144215
15	18087	89	4371.7864457877
15	18326	90	4389.637545638
15	18565	91	4407.4540969936
15	18804	92	4425.9429209636
15	19043	93	4443.7305274457
15	19282	94	4456.4407736669
15	19536	95	4468.9408580012
15	19807	96	4481.641139198
15	20078	97	4493.1166667271
15	20349	98	4502.8371239674
15	20620	99	4510.9312422879
15	20897	100	4517.6015437402
15	21174	101	4522.4571909315
15	21451	102	4525.5182800223
15	21728	103	4527.0410605306
15	22005	104	4527.0975916046
15	22278	105	4527.1311353201
15	22545	106	4527.1356952224
15	22812	107	4527.1360312462
15	23079	108	4527.1362693868
15	23350	109	4527.1363368332
15	23621	110	4527.1363368332
15	23892	111	4527.1363368332
15	24163	112	4527.1363368332
15	24434	113	4527.1363368332
15	24779	114	4527.1363368332
15	25124	115	4527.1363368332
15	25469	116	4527.1363368332
15	25814	117	4527.1363368332
15	26159	118	4527.1363368332
16	259	4	1444.792961635
16	418	5	1446.7249801079
16	598	6	1450.0874252598
16	779	7	1454.6970493493
16	960	8	1461.4658393329
16	1141	9	1469.7417788664
16	1322	10	1479.4681753176
16	1503	11	1490.8602035788
16	1684	12	1502.741718376
16	1865	13	1511.2692984034
16	2046	14	1515.6825005176
16	2227	15	1522.3767512383
16	2408	16	1525.4550977878
16	2589	17	1528.918507554
16	2770	18	1533.1876725733
16	2951	19	1538.1679699146
16	3132	20	1544.0845006261
16	3313	21	1549.7657988554
16	3494	22	1555.5636666674
16	3675	23	1561.6306395154
16	3856	24	1567.6351490241
16	4037	25	1573.5817345379
16	4218	26	1579.7220920566
16	4399	27	1585.7358729731
16	4580	28	1592.0342411811
16	4761	29	1598.0576975894
16	4942	30	1604.2961451835
16	5123	31	1609.9690299335
16	5346	32	1613.9324429646
16	5569	33	1616.581301506
16	5798	34	1620.9952536361
16	6027	35	1628.7181033458
16	6256	36	1636.3375402273
16	6485	37	1645.4446272158
16	6714	38	1655.912154429
16	6943	39	1668.0243996253
16	7172	40	1681.4809821635
16	7401	41	1696.6504147336
16	7630	42	1713.1945203614
16	7859	43	1731.9672727643
16	8088	44	1752.6957965824
16	8317	45	1775.3583702092
16	8546	46	1800.8754082197
16	8775	47	1828.7958022768
16	9004	48	1857.4492300489
16	9233	49	1884.8441707558
16	9462	50	1913.1551268552
16	9691	51	1940.8823592337
16	9920	52	1968.6514253702
16	10149	53	1995.5400913286
16	10378	54	2021.5183270335
16	10607	55	2044.8704277103
16	10836	56	2065.7890887138
16	11065	57	2083.966064049
16	11300	58	2097.5909485785
16	11535	59	2110.3642723699
16	11776	60	2122.9144836212
16	12011	61	2135.5923366842
16	12246	62	2149.136344086
16	12477	63	2162.6800168944
16	12714	64	2179.3696289453
16	12939	65	2202.1315418905
16	13158	66	2226.5360206462
16	13383	67	2251.7595348009
16	13608	68	2277.1435564975
16	13833	69	2302.7147014634
16	14034	70	2328.1953204663
16	14241	71	2353.6834022896
16	14442	72	2377.894574789
16	14643	73	2401.8111449278
16	14838	74	2425.7594820383
16	15033	75	2447.1726687582
16	15228	76	2467.9731139018
16	15423	77	2488.8290471039
16	15618	78	2509.9142211991
16	15813	79	2532.3396419774
16	16008	80	2557.5784222199
16	16203	81	2584.8482781674
16	16442	82	2613.5592287466
16	16677	83	2642.2413749404
16	16912	84	2670.5784678379
16	17147	85	2697.9750953247
16	17382	86	2725.0581535816
16	17617	87	2751.8168766011
16	17852	88	2777.5762673468
16	18087	89	2803.2991416409
16	18326	90	2828.8182787584
16	18565	91	2853.9876925782
16	18804	92	2880.1068248533
16	19043	93	2906.1890633576
16	19282	94	2934.6740867064
16	19536	95	2963.0709431356
16	19807	96	2991.9225934214
16	20078	97	3017.9664137307
16	20349	98	3040.0066565368
16	20620	99	3058.3545806921
16	20897	100	3073.4895541499
16	21174	101	3084.5070609128
16	21451	102	3091.4526993479
16	21728	103	3094.9079018961
16	22005	104	3095.0361714071
16	22278	105	3095.1122823964
16	22545	106	3095.1226288555
16	22812	107	3095.1233912964
16	23079	108	3095.1239316396
16	23350	109	3095.124084676
16	23621	110	3095.124084676
16	23892	111	3095.124084676
16	24163	112	3095.124084676
16	24434	113	3095.124084676
16	24779	114	3095.124084676
16	25124	115	3095.124084676
16	25469	116	3095.124084676
16	25814	117	3095.124084676
16	26159	118	3095.124084676
17	259	4	6655.7244326577
17	418	5	6654.0143718104
17	598	6	6651.0143153142
17	779	7	6646.1039391365
17	960	8	6639.5519893263
17	1141	9	6631.706371178
17	1322	10	6622.4676371146
17	1503	11	6611.49779312
17	1684	12	6603.487620338
17	1865	13	6597.8979970059
17	2046	14	6592.4533289851
17	2227	15	6586.3439826545
17	2408	16	6581.2688688652
17	2589	17	6575.3141051368
17	2770	18	6568.3198153093
17	2951	19	6559.729896669
17	3132	20	6549.9041705914
17	3313	21	6538.3753166065
17	3494	22	6525.193454888
17	3675	23	6511.3541311276
17	3856	24	6497.915223515
17	4037	25	6484.0004395322
17	4218	26	6470.6561718214
17	4399	27	6456.9644279212
17	4580	28	6442.7297685547
17	4761	29	6428.102065785
17	4942	30	6412.7704097573
17	5123	31	6397.3640489189
17	5346	32	6381.7111831646
17	5569	33	6366.1733149205
17	5798	34	6350.6352603889
17	6027	35	6334.8144229032
17	6256	36	6321.0499382428
17	6485	37	6310.6125220153
17	6714	38	6303.0200376186
17	6943	39	6298.3505793221
17	7172	40	6292.6037602845
17	7401	41	6286.762386114
17	7630	42	6281.1795885165
17	7859	43	6274.0586073847
17	8088	44	6265.2029624753
17	8317	45	6254.9901891233
17	8546	46	6242.9706426557
17	8775	47	6229.7880934916
17	9004	48	6215.4902105158
17	9233	49	6199.6070048233
17	9462	50	6181.6417423069
17	9691	51	6161.8886649775
17	9920	52	6141.9491428141
17	10149	53	6122.2919480757
17	10378	54	6102.8681636602
17	10607	55	6083.0301785311
17	10836	56	6063.9618227157
17	11065	57	6044.9037787555
17	11300	58	6025.4433414651
17	11535	59	6005.9781844253
17	11776	60	5986.4015422164
17	12011	61	5966.5670970177
17	12246	62	5947.3391723309
17	12477	63	5927.6199848422
17	12714	64	5908.0724873561
17	12939	65	5888.8779264905
17	13158	66	5869.4695942642
17	13383	67	5849.673076587
17	13608	68	5830.3265374624
17	13833	69	5810.8199058612
17	14034	70	5791.4178245227
17	14241	71	5771.5715901908
17	14442	72	5752.1273745261
17	14643	73	5733.1451187547
17	14838	74	5713.5726612562
17	15033	75	5693.9946941969
17	15228	76	5674.7267700435
17	15423	77	5655.4828994764
17	15618	78	5636.5224483939
17	15813	79	5617.1152448198
17	16008	80	5597.7289668981
17	16203	81	5578.7824287871
17	16442	82	5559.7032768738
17	16677	83	5540.8575747282
17	16912	84	5521.6980485121
17	17147	85	5502.2168622193
17	17382	86	5483.2243524554
17	17617	87	5464.0757269268
17	17852	88	5444.6550535403
17	18087	89	5425.2511011495
17	18326	90	5405.3687744007
17	18565	91	5385.8899340803
17	18804	92	5366.7222367424
17	19043	93	5347.1727952517
17	19282	94	5327.2487426801
17	19536	95	5308.4915788309
17	19807	96	5292.7140680921
17	20078	97	5280.5711389799
17	20349	98	5272.0627914943
17	20620	99	5267.5136421726
17	20897	100	5268.0035968708
17	21174	101	5271.1288018454
17	21451	102	5275.4168366603
17	21728	103	5280.4746689764
17	22005	104	5286.9603391437
17	22278	105	5293.7391381864
17	22545	106	5300.809757274
17	22812	107	5307.9056405119
17	23079	108	5315.1855908439
17	23350	109	5322.5272098746
17	23621	110	5329.7929362424
17	23892	111	5334.7668351077
17	24163	112	5337.8456317426
17	24434	113	5341.9028613245
17	24779	114	5347.6319745667
17	25124	115	5354.7352652039
17	25469	116	5363.5379464993
17	25814	117	5374.3424951244
17	26159	118	5384.7224319631
18	259	4	2297.5291637801
18	418	5	2296.0307584802
18	598	6	2293.4020212858
18	779	7	2289.0994061474
18	960	8	2283.3583962086
18	1141	9	2276.4838362577
18	1322	10	2267.5865898439
18	1503	11	2256.8172479545
18	1684	12	2248.9534816763
18	1865	13	2243.4660230829
18	2046	14	2240.5263778958
18	2227	15	2242.8755421433
18	2408	16	2248.1616245131
18	2589	17	2254.688961677
18	2770	18	2262.3557793725
18	2951	19	2271.7716517282
18	3132	20	2282.539005352
18	3313	21	2295.1764925844
18	3494	22	2309.6301937819
18	3675	23	2324.8047916254
18	3856	24	2339.5403395473
18	4037	25	2354.7976783216
18	4218	26	2369.4294551001
18	4399	27	2384.4422339801
18	4580	28	2399.8408666008
18	4761	29	2413.2857341238
18	4942	30	2427.0313567693
18	5123	31	2440.6951860062
18	5346	32	2453.9828250202
18	5569	33	2467.0553947538
18	5798	34	2480.1281212177
18	6027	35	2493.5054004186
18	6256	36	2505.6755962916
18	6485	37	2514.904085627
18	6714	38	2521.6171609473
18	6943	39	2525.7457733503
18	7172	40	2529.4374628859
18	7401	41	2528.0250184322
18	7630	42	2523.7911383505
18	7859	43	2518.2451506926
18	8088	44	2511.348166069
18	8317	45	2503.3942178819
18	8546	46	2494.0183988474
18	8775	47	2483.4334281141
18	9004	48	2471.718074147
18	9233	49	2458.7037434848
18	9462	50	2444.3232224508
18	9691	51	2428.8856003339
18	9920	52	2413.0939911078
18	10149	53	2396.2886313991
18	10378	54	2379.5411423607
18	10607	55	2362.4390442059
18	10836	56	2346.0011411398
18	11065	57	2329.7917440036
18	11300	58	2313.4427931803
18	11535	59	2297.0903942229
18	11776	60	2280.6495627729
18	12011	61	2263.9327424378
18	12246	62	2247.2813350973
18	12477	63	2230.0843094121
18	12714	64	2213.0485881974
18	12939	65	2196.3091980609
18	13158	66	2179.3945462041
18	13383	67	2162.2027484853
18	13608	68	2145.4131322233
18	13833	69	2128.4845820036
18	14034	70	2111.6467642286
18	14241	71	2094.4658515808
18	14442	72	2077.6487095926
18	14643	73	2061.2216795375
18	14838	74	2044.2349198128
18	15033	75	2027.2867923968
18	15228	76	2010.0616163789
18	15423	77	1992.9946984857
18	15618	78	1976.1791383978
18	15813	79	1958.9673644575
18	16008	80	1941.744041206
18	16203	81	1924.9012075914
18	16442	82	1907.9404847773
18	16677	83	1891.1872909363
18	16912	84	1874.2804981667
18	17147	85	1857.3176516456
18	17382	86	1840.7803102674
18	17617	87	1824.1092265657
18	17852	88	1807.2397532437
18	18087	89	1790.5604905823
18	18326	90	1773.502280968
18	18565	91	1756.7902459317
18	18804	92	1740.3451586366
18	19043	93	1723.5725507319
18	19282	94	1706.4785420966
18	19536	95	1691.4637123415
18	19807	96	1679.945862797
18	20078	97	1671.0813192794
18	20349	98	1664.8700817888
18	20620	99	1660.7952036237
18	20897	100	1655.5096278236
18	21174	101	1650.9177909319
18	21451	102	1644.7489328227
18	21728	103	1637.4726276514
18	22005	104	1628.1422045714
18	22278	105	1618.3900800551
18	22545	106	1608.218137014
18	22812	107	1598.0098484286
18	23079	108	1587.536757006
18	23350	109	1576.9749476815
18	23621	110	1566.5223191563
18	23892	111	1559.366762433
18	24163	112	1554.9375400951
18	24434	113	1550.8606112992
18	24779	114	1551.9506224928
18	25124	115	1556.3710692384
18	25469	116	1561.8490632939
18	25814	117	1568.5728388294
18	26159	118	1575.0323743266
19	259	4	1.5296135549434
19	418	5	2.5660466220463
19	598	6	2.4098704894772
19	779	7	2.3259981652023
19	960	8	2.0531103350688
19	1141	9	1.3437319739549
19	1322	10	-0.272249857313
19	1503	11	0.87812303652695
19	1684	12	-4.5
19	1865	13	-4.5
19	2046	14	1.8890440943418
19	2227	15	0.3069936311834
19	2408	16	2.0997949530138
19	2589	17	1.4338872503722
19	2770	18	1.4823798019206
19	2951	19	0.7988603190611
19	3132	20	-3.424312454837
19	3313	21	-4.4379896501079
19	3494	22	0.4519916234538
19	3675	23	2.4732063131174
19	3856	24	2.0403913045768
19	4037	25	1.6103753659641
19	4218	26	1.9368867530745
19	4399	27	0.21554645565339
19	4580	28	-0.27445207044948
19	4761	29	0.33030730963219
19	4942	30	0.25020537334494
19	5123	31	-0.54000017212238
19	5346	32	-0.18492460777052
19	5569	33	-0.36463538554963
19	5798	34	-0.16819731895812
19	6027	35	0.85236731518526
19	6256	36	-0.68115719044581
19	6485	37	0.3803823152557
19	6714	38	-0.23590321561787
19	6943	39	0.18440750166774
19	7172	40	0.74557026040275
19	7401	41	-1.7659943722409
19	7630	42	-4.0822895151446
19	7859	43	-4.5
19	8088	44	2.2129591360455
19	8317	45	1.8272430646696
19	8546	46	2.5374351908918
19	8775	47	1.9166256733937
19	9004	48	2.4010498466436
19	9233	49	1.949986792868
19	9462	50	1.5787855621893
19	9691	51	2.2670871848008
19	9920	52	2.0376957817236
19	10149	53	2.5662959037116
19	10378	54	1.388996877335
19	10607	55	1.5388869004258
19	10836	56	-0.5174885753775
19	11065	57	0.51601251841057
19	11300	58	0.62409493126907
19	11535	59	-0.82864982441534
19	11776	60	-0.17931845900603
19	12011	61	0.81131950505078
19	12246	62	0.21685696581844
19	12477	63	-1.060217837547
19	12714	64	0.16431282067206
19	12939	65	-0.099958688532933
19	13158	66	0.4803890575422
19	13383	67	0.018345431867054
19	13608	68	0.18206838613842
19	13833	69	-0.77250991545152
19	14034	70	1.0855780338403
19	14241	71	-0.46840172952507
19	14442	72	-0.75421165260486
19	14643	73	0.35991841449868
19	14838	74	-0.27590273348615
19	15033	75	1.2121758741559
19	15228	76	-0.64281821139157
19	15423	77	-0.18077579431701
19	15618	78	0.24782327122521
19	15813	79	-4.0447571596023
19	16008	80	-4.4133507134113
19	16203	81	-3.796203155024
19	16442	82	-4.4180196543379
19	16677	83	-4.4328858938767
19	16912	84	-3.7722950333207
19	17147	85	-2.7285245553635
19	17382	86	-0.59417647515013
19	17617	87	-0.16558584734895
19	17852	88	-0.17504427750993
19	18087	89	-0.0062843906607899
19	18326	90	-0.00076655542140044
19	18565	91	-0.00046585660785475
19	18804	92	-0.00012841009376114
19	19043	93	-0.00014459238273456
19	19282	94	0
19	19536	95	0
19	19807	96	1.7257366852835
19	20078	97	1.531012468203
19	20349	98	2.2041833349271
19	20620	99	1.5609465687769
19	20897	100	2.2241574415937
19	21174	101	1.7162051725201
19	21451	102	1.6627437446266
19	21728	103	2.5530080158263
19	22005	104	2.5718988770619
19	22278	105	1.3629213256994
19	22545	106	2.3323004034348
19	22812	107	1.6930251182523
19	23079	108	2.5339947584318
19	23350	109	2.3961414442165
19	23621	110	0.6633231841613
19	23892	111	0.1756724863546
19	24163	112	0.087514815805477
19	24434	113	-0.38040905126836
19	24779	114	0.22462679778691
19	25124	115	0.085136714205149
19	25469	116	-0.027336275810377
19	25814	117	-0.49535015956499
19	26159	118	0.37007654716726
19	26504	119	-0.32828967187088
20	259	4	2.3881097837276
20	418	5	4.8768049678668
20	598	6	6.2124026457037
20	779	7	7.520893360234
20	960	8	8.028371464953
20	1141	9	6.4697760003082
20	1322	10	1.1023011772863
20	1503	11	5.1165808501743
20	1684	12	0.973
20	1865	13	0.973
20	2046	14	4.7972569975487
20	2227	15	2.0739726380297
20	2408	16	6.5477394798873
20	2589	17	5.6049945095244
20	2770	18	6.3933602805918
20	2951	19	4.5513145513112
20	3132	20	0.973
20	3313	21	0.973
20	3494	22	2.0671006371517
20	3675	23	6.6019950725065
20	3856	24	6.874375652007
20	4037	25	6.5480445593031
20	4218	26	8.5885441720992
20	4399	27	2.8036039869407
20	4580	28	1.1116417938066
20	4761	29	3.2077721779457
20	4942	30	2.9733531182951
20	5123	31	0.973
20	5346	32	1.4047340851515
20	5569	33	0.973
20	5798	34	1.429211261708
20	6027	35	4.9585239906998
20	6256	36	0.973
20	6485	37	3.2915019557165
20	6714	38	1.2254665835455
20	6943	39	2.630288658458
20	7172	40	4.706590387893
20	7401	41	0.973
20	7630	42	0.973
20	7859	43	0.973
20	8088	44	4.8561626364915
20	8317	45	5.1812712496925
20	8546	46	8.3272893030704
20	8775	47	7.7676649518718
20	9004	48	10.881896786582
20	9233	49	10.392328291788
20	9462	50	9.6845589978648
20	9691	51	14.365005321945
20	9920	52	14.58073898495
20	10149	53	19.627908556216
20	10378	54	13.19369337878
20	10607	55	15.135253461846
20	10836	56	0.98156209300482
20	11065	57	8.131244266777
20	11300	58	9.1378747297223
20	11535	59	0.973
20	11776	60	3.2840626871971
20	12011	61	10.354295981279
20	12246	62	6.2952429555173
20	12477	63	0.973
20	12714	64	5.6454718850919
20	12939	65	3.8278752890616
20	13158	66	7.9374244108094
20	13383	67	4.7648287283877
20	13608	68	5.9497366014927
20	13833	69	-0.7270236710178
20	14034	70	12.37670896082
20	14241	71	1.4193922828359
20	14442	72	-0.6149578107181
20	14643	73	6.9838957712186
20	14838	74	2.6094205255083
20	15033	75	13.305348862866
20	15228	76	0.20595524717415
20	15423	77	3.3362148558023
20	15618	78	6.3417211030444
20	15813	79	0.973
20	16008	80	0.973
20	16203	81	0.973
20	16442	82	0.973
20	16677	83	0.973
20	16912	84	0.973
20	17147	85	0.973
20	17382	86	0.973
20	17617	87	0.973
20	17852	88	0.973
20	18087	89	1.1100703411884
20	18326	90	1.1100355060655
20	18565	91	1.1100131389891
20	18804	92	1.1100069706619
20	19043	93	0.973
20	19282	94	0.973
20	19536	95	0.973
20	19807	96	1.9114625947002
20	20078	97	2.4719523483697
20	20349	98	4.2893717509599
20	20620	99	4.1222669450873
20	20897	100	6.5851268627375
20	21174	101	6.294555860526
20	21451	102	6.9640231277692
20	21728	103	11.503835132988
20	22005	104	13.484734968942
20	22278	105	8.9548545773399
20	22545	106	15.109558940891
20	22812	107	12.811333111745
20	23079	108	19.589208103005
20	23350	109	20.715374959335
20	23621	110	9.2801200069925
20	23892	111	5.959820907838
20	24163	112	5.3720529944931
20	24434	113	2.0313724723873
20	24779	114	6.2781073676164
20	25124	115	5.3341584887961
20	25469	116	4.542670363649
20	25814	117	1.2059216453038
20	26159	118	7.2642238439949
20	26504	119	2.3574739108914
21	259	4	1.4015385301784
21	418	5	1.5948854350485
21	598	6	1.7431896411348
21	779	7	1.4684440099867
21	960	8	2.1238328776089
21	1141	9	2.5895389665384
21	1322	10	1.2596902379261
21	1503	11	-0.2089500667993
21	1684	12	0.1409852320794
21	1865	13	-1.7949582040213
21	2046	14	-3.1270641825026
21	2227	15	-4.5
21	2408	16	1.3428612101357
21	2589	17	1.0310144632744
21	2770	18	1.4834439461352
21	2951	19	2.5224465359235
21	3132	20	0.23368179460696
21	3313	21	-4.3205626315554
21	3494	22	1.8783325833268
21	3675	23	2.5366576599656
21	3856	24	2.2281300266739
21	4037	25	0.70999919529449
21	4218	26	-1.2078481578501
21	4399	27	0.82650425084867
21	4580	28	-0.47854863761459
21	4761	29	0.060195035440847
21	4942	30	-0.35468478500843
21	5123	31	-3.3444111140354
21	5346	32	-1.5275973451514
21	5569	33	-0.7306824453096
21	5798	34	-0.22333251610398
21	6027	35	1.7215491539333
21	6256	36	2.1747559851734
21	6485	37	2.5418741665548
21	6714	38	1.9380381025374
21	6943	39	2.1537052321015
21	7172	40	-0.6276673864387
21	7401	41	0.38831389660481
21	7630	42	0.12510914949235
21	7859	43	0.34263959701639
21	8088	44	-0.87720819036477
21	8317	45	0.012545942119324
21	8546	46	0.56715206475928
21	8775	47	0.46201586236712
21	9004	48	-0.86907727951184
21	9233	49	0.56968365137
21	9462	50	-0.19999147157651
21	9691	51	-0.062635461846366
21	9920	52	-0.26063364534639
21	10149	53	0.39349089954048
21	10378	54	-0.45522856153548
21	10607	55	0.8627166870283
21	10836	56	0.013466533459724
21	11065	57	-0.070457457355225
21	11300	58	2.3034919616068
21	11535	59	1.7747161863372
21	11776	60	1.7105175084434
21	12011	61	2.276243982045
21	12246	62	1.2231258223094
21	12477	63	0.20704323679675
21	12714	64	0.83796362017747
21	12939	65	-0.95974974005949
21	13158	66	-2.3552608165866
21	13383	67	-4.1623782293778
21	13608	68	-3.9691402071621
21	13833	69	-4.3779395105443
21	14034	70	-3.5296274440053
21	14241	71	-4.2983202014817
21	14442	72	-3.985790324896
21	14643	73	-0.59615507359915
21	14838	74	-0.098468586243249
21	15033	75	-0.085764734924916
21	15228	76	-0.019269318059088
21	15423	77	-0.017294488633153
21	15618	78	-0.0084711996276922
21	15813	79	-0.001877251450136
21	16008	80	-0.00035786601874089
21	16203	81	0
21	16442	82	0
21	16677	83	0
21	16912	84	0
21	17147	85	0
21	17382	86	0
21	17617	87	0
21	17852	88	0
21	18087	89	0
21	18326	90	0
21	18565	91	0
21	18804	92	0
21	19043	93	0
21	19282	94	0
21	19536	95	0
21	19807	96	2.2478029529797
21	20078	97	2.5463456669822
21	20349	98	1.3706118613016
21	20620	99	1.8927657784196
21	20897	100	1.5568403084762
21	21174	101	2.1843239545124
21	21451	102	1.5017193039879
21	21728	103	2.0804090110818
21	22005	104	2.3021203337237
21	22278	105	2.347441291227
21	22545	106	1.8286314303123
21	22812	107	-4.5
21	23079	108	-4.5
21	23350	109	-4.5
21	23621	110	-4.5
21	23892	111	-3.789999072947
21	24163	112	-0.015286423299054
21	24434	113	-0.04538390252085
21	24779	114	-0.0071721460675223
21	25124	115	1.9765617014607
21	25469	116	1.5985931934323
21	25814	117	1.8051334520103
21	26159	118	1.3170689943712
21	26504	119	1.6940347277327
22	259	4	2.4001547411577
22	418	5	3.2530756376456
22	598	6	4.2620133502382
22	779	7	4.4331748928246
22	960	8	6.958450498276
22	1141	9	9.94768142871
22	1322	10	6.3349837681206
22	1503	11	1.3288766503154
22	1684	12	2.5206877193237
22	1865	13	0.973
22	2046	14	0.973
22	2227	15	0.973
22	2408	16	3.3481396480497
22	2589	17	3.2177198178088
22	2770	18	4.6072312500879
22	2951	19	8.4525140820665
22	3132	20	2.4159105362471
22	3313	21	0.973
22	3494	22	5.5780161992299
22	3675	23	8.7179496121649
22	3856	24	9.2752761517978
22	4037	25	4.5082873456089
22	4218	26	0.973
22	4399	27	4.7936257536325
22	4580	28	0.973
22	4761	29	2.1808993406285
22	4942	30	0.973
22	5123	31	0.973
22	5346	32	0.973
22	5569	33	0.973
22	5798	34	0.973
22	6027	35	5.3504753435862
22	6256	36	7.6410145015693
22	6485	37	10.420028641591
22	6714	38	9.5372943527344
22	6943	39	11.740769795308
22	7172	40	0.973
22	7401	41	4.1049859353522
22	7630	42	3.0104963040285
22	7859	43	4.0138068241285
22	8088	44	0.973
22	8317	45	2.4594362949418
22	8546	46	4.9088508158148
22	8775	47	4.5742480133678
22	9004	48	0.973
22	9233	49	4.9641808323624
22	9462	50	1.6240536939767
22	9691	51	2.2028694226879
22	9920	52	1.3423113415495
22	10149	53	4.1735702503369
22	10378	54	0.973
22	10607	55	6.3253635511836
22	10836	56	2.6044087152112
22	11065	57	2.2275885110863
22	11300	58	14.229313709347
22	11535	59	12.693457006009
22	11776	60	13.389794348685
22	12011	61	18.406172030149
22	12246	62	12.420372468228
22	12477	63	5.769454006154
22	12714	64	10.362668419169
22	12939	65	0.973
22	13158	66	0.973
22	13383	67	0.973
22	13608	68	0.973
22	13833	69	0.973
22	14034	70	0.973
22	14241	71	0.973
22	14442	72	0.973
22	14643	73	0.973
22	14838	74	1.1132607782647
22	15033	75	1.1113032801065
22	15228	76	1.1112207277965
22	15423	77	1.1104718492228
22	15618	78	1.1101032589433
22	15813	79	1.1100171015519
22	16008	80	0.973
22	16203	81	0.973
22	16442	82	0.973
22	16677	83	0.973
22	16912	84	0.973
22	17147	85	0.973
22	17382	86	0.973
22	17617	87	0.973
22	17852	88	0.973
22	18087	89	0.973
22	18326	90	0.973
22	18565	91	0.973
22	18804	92	0.973
22	19043	93	0.973
22	19282	94	0.973
22	19536	95	0.973
22	19807	96	2.4371641539916
22	20078	97	4.2934706328943
22	20349	98	3.4653592526724
22	20620	99	5.2225141375646
22	20897	100	5.2631915014066
22	21174	101	8.0419908856842
22	21451	102	6.7825750397957
22	21728	103	9.8997166122861
22	22005	104	12.28449670734
22	22278	105	14.150523792325
22	22545	106	12.762609025725
22	22812	107	0.973
22	23079	108	0.973
22	23350	109	0.973
22	23621	110	0.973
22	23892	111	0.973
22	24163	112	1.1123938461552
22	24434	113	1.1103111957739
22	24779	114	1.110054434664
22	25124	115	2.1482157853147
22	25469	116	2.664565979363
22	25814	117	3.7251331091446
22	26159	118	3.5871067861052
22	26504	119	4.9958326489142
23	259	4	2.5865135943983
23	418	5	4.7127142603975
23	598	6	6.6602772863582
23	779	7	8.6114078109851
23	960	8	10.566902523325
23	1141	9	13.157096493267
23	1322	10	13.928538607243
23	1503	11	13.691425394473
23	1684	12	13.91777258026
23	1865	13	14.08519838587
23	2046	14	13.818390723524
23	2227	15	12.962129428304
23	2408	16	13.558456358496
23	2589	17	13.923732134673
23	2770	18	13.779985474535
23	2951	19	12.939289050446
23	3132	20	8.6003073967774
23	3313	21	4.1003073967774
23	3494	22	0.18079985471144
23	3675	23	0.028417343948497
23	3856	24	0.0085592306834894
23	4037	25	0.00065575394816491
23	4218	26	0
23	4399	27	0
23	4580	28	0
23	4761	29	0
23	4942	30	0.00012053518889462
23	5123	31	0
23	5346	32	0
23	5569	33	0
23	5798	34	0
23	6027	35	0
23	6256	36	0
23	6485	37	0
23	6714	38	0
23	6943	39	0
23	7172	40	0
23	7401	41	0
23	7630	42	0
23	7859	43	0
23	8088	44	0
23	8317	45	0
23	8546	46	0
23	8775	47	0
23	9004	48	0
23	9233	49	0
23	9462	50	1.9946309867082
23	9691	51	4.0438797508832
23	9920	52	5.8332469455665
23	10149	53	7.5935845959466
23	10378	54	9.6938883752562
23	10607	55	11.647968693171
23	10836	56	13.456182183721
23	11065	57	15.922392993141
23	11300	58	18.348984734784
23	11535	59	20.75558018575
23	11776	60	23.042813676619
23	12011	61	25.419041344011
23	12246	62	27.593760574167
23	12477	63	28.068799059481
23	12714	64	28.163726760556
23	12939	65	27.237001371725
23	13158	66	27.388828345544
23	13383	67	27.736382914653
23	13608	68	27.965289692806
23	13833	69	27.257316136376
23	14034	70	27.982963975721
23	14241	71	27.475422518251
23	14442	72	27.078044406294
23	14643	73	27.672927724982
23	14838	74	27.809136629283
23	15033	75	27.775529530078
23	15228	76	26.962680486349
23	15423	77	28.07506660334
23	15618	78	28.129525305603
23	15813	79	27.608010445807
23	16008	80	26.152170354597
23	16203	81	22.532049651994
23	16442	82	18.032049651994
23	16677	83	13.997054585503
23	16912	84	9.4970545855034
23	17147	85	4.9970545855034
23	17382	86	1.2272000214077
23	17617	87	0.012402036109619
23	17852	88	0.00018539677033115
23	18087	89	0.00011154743106446
23	18326	90	0
23	18565	91	0
23	18804	92	0
23	19043	93	0
23	19282	94	0
23	19536	95	0
23	19807	96	0
23	20078	97	0
23	20349	98	0
23	20620	99	0
23	20897	100	0
23	21174	101	0
23	21451	102	0
23	21728	103	0
23	22005	104	0
23	22278	105	0
23	22545	106	0
23	22812	107	0
23	23079	108	0
23	23350	109	0
23	23621	110	0
23	23892	111	0
23	24163	112	0
23	24434	113	0
23	24779	114	0
23	25124	115	0
23	25469	116	0
23	25814	117	0
23	26159	118	0
23	26504	119	0
24	259	4	1.4645417755703
24	418	5	4.0500930060865
24	598	6	5.3909901415929
24	779	7	7.679718698631
24	960	8	9.1497657984961
24	1141	9	11.258993729576
24	1322	10	11.576146606464
24	1503	11	11.263542163923
24	1684	12	11.877869493972
24	1865	13	10.764600608323
24	2046	14	7.9253751310983
24	2227	15	5.3840903748483
24	2408	16	5.3149307517292
24	2589	17	7.7938899818532
24	2770	18	9.4902996733044
24	2951	19	10.827146984679
24	3132	20	10.993846216161
24	3313	21	11.637241019021
24	3494	22	11.943917537193
24	3675	23	11.635387257959
24	3856	24	7.1353872579595
24	4037	25	9.044926279255
24	4218	26	11.092608303891
24	4399	27	11.995260301876
24	4580	28	11.353707127847
24	4761	29	11.640073623151
24	4942	30	12.239281469413
24	5123	31	11.271161313696
24	5346	32	11.899144399018
24	5569	33	11.978900028408
24	5798	34	12.216128816448
24	6027	35	12.011765988792
24	6256	36	11.01823650791
24	6485	37	11.883495056016
24	6714	38	11.356893335577
24	6943	39	9.2500535976051
24	7172	40	6.4137073408373
24	7401	41	8.5443340774419
24	7630	42	9.8586191095438
24	7859	43	11.982898239574
24	8088	44	12.125406943417
24	8317	45	11.376000579904
24	8546	46	11.268950940009
24	8775	47	11.247276937674
24	9004	48	11.930798131499
24	9233	49	11.205670282795
24	9462	50	11.458323425256
24	9691	51	12.219602541571
24	9920	52	11.43379680772
24	10149	53	11.366974150801
24	10378	54	11.030671854752
24	10607	55	11.77397378191
24	10836	56	11.391533646329
24	11065	57	11.132543836107
24	11300	58	11.336356798319
24	11535	59	12.086687802725
24	11776	60	11.931018035362
24	12011	61	11.835378464909
24	12246	62	11.387936527716
24	12477	63	12.158359558616
24	12714	64	12.213981487943
24	12939	65	11.392688794868
24	13158	66	12.113462768766
24	13383	67	11.217687062166
24	13608	68	12.25566626812
24	13833	69	10.98869451393
24	14034	70	10.991616058411
24	14241	71	11.439900046975
24	14442	72	11.482041663343
24	14643	73	11.985558770822
24	14838	74	7.4855587708218
24	15033	75	9.3718231095387
24	15228	76	11.506665421386
24	15423	77	11.736265867917
24	15618	78	11.429048326184
24	15813	79	12.194283146822
24	16008	80	12.120437044922
24	16203	81	11.241163658832
24	16442	82	11.349719603096
24	16677	83	9.7783432557305
24	16912	84	5.4632799921848
24	17147	85	4.4474700874939
24	17382	86	4.9298765827261
24	17617	87	7.3171306380594
24	17852	88	9.0811502370109
24	18087	89	10.42976007972
24	18326	90	12.111421359243
24	18565	91	14.260760967416
24	18804	92	16.080668907828
24	19043	93	17.391392625921
24	19282	94	18.78578102992
24	19536	95	21.080205770262
24	19807	96	22.774559535255
24	20078	97	23.771115450848
24	20349	98	24.501839519206
24	20620	99	24.003820868216
24	20897	100	23.96022737325
24	21174	101	24.355413382182
24	21451	102	24.30239608398
24	21728	103	23.825140823035
24	22005	104	23.95522919368
24	22278	105	19.45522919368
24	22545	106	15.040758183678
24	22812	107	10.540758183678
24	23079	108	6.1661801373446
24	23350	109	2.6332065419153
24	23621	110	0.23611206706945
24	23892	111	0.10608976617026
24	24163	112	0.024935760522291
24	24434	113	0.015446515485743
24	24779	114	0.0004559147292053
24	25124	115	0.00033235143116323
24	25469	116	0
24	25814	117	0
24	26159	118	0
24	26504	119	0
25	418	5	8223.1070658366
25	598	6	8223.9416539466
25	779	7	8226.6991266371
25	960	8	8231.024511966
25	1141	9	8236.4260377154
25	1322	10	8242.7174321342
25	1503	11	8249.6449350607
25	1684	12	8255.9665064292
25	1865	13	8262.400137764
25	2046	14	8268.9027156288
25	2227	15	8275.7217603082
25	2408	16	8282.325466483
25	2589	17	8289.3903499707
25	2770	18	8296.011362762
25	2951	19	8302.4648822003
25	3132	20	8309.3783025539
25	3313	21	8316.315386701
25	3494	22	8322.7428276405
25	3675	23	8329.111235694
25	3856	24	8334.8705470146
25	4037	25	8337.9947404525
25	4218	26	8340.8526192431
25	4399	27	8344.4923256213
25	4580	28	8348.5632509046
25	4761	29	8353.4554481387
25	4942	30	8359.3789363425
25	5123	31	8367.0799539977
25	5346	32	8375.9741324365
25	5569	33	8386.2649520689
25	5798	34	8398.0816817522
25	6027	35	8410.2051763171
25	6256	36	8422.8136402274
25	6485	37	8435.5493885473
25	6714	38	8448.226404155
25	6943	39	8460.6456089646
25	7172	40	8472.4155355024
25	7401	41	8483.5102723268
25	7630	42	8491.2327164362
25	7859	43	8495.8077742409
25	8088	44	8498.684815672
25	8317	45	8500.8168957278
25	8546	46	8498.9361632536
25	8775	47	8494.7156340036
25	9004	48	8488.9401911998
25	9233	49	8481.776671991
25	9462	50	8472.8635050055
25	9691	51	8462.7291515915
25	9920	52	8451.6124886308
25	10149	53	8440.7910942702
25	10378	54	8429.6496924904
25	10607	55	8418.5079156819
25	10836	56	8407.4233830736
25	11065	57	8396.2381174993
25	11300	58	8385.5162411798
25	11535	59	8374.2000744933
25	11776	60	8363.0883535417
25	12011	61	8351.7899603039
25	12246	62	8340.9044074374
25	12477	63	8330.5389133942
25	12714	64	8319.6469311475
25	12939	65	8308.6501010364
25	13158	66	8297.5291098345
25	13383	67	8286.3888228036
25	13608	68	8275.5294561637
25	13833	69	8264.4455905763
25	14034	70	8254.1122187025
25	14241	71	8243.4454000369
25	14442	72	8232.3548317144
25	14643	73	8221.8979021494
25	14838	74	8210.9070938966
25	15033	75	8199.9659128708
25	15228	76	8188.8392646637
25	15423	77	8178.2342180488
25	15618	78	8167.3210917377
25	15813	79	8156.0814494421
25	16008	80	8145.5225786229
25	16203	81	8134.2205859787
25	16442	82	8123.2586817455
25	16677	83	8112.3478421772
25	16912	84	8101.719582851
25	17147	85	8090.6932706348
25	17382	86	8080.0679329621
25	17617	87	8067.4333048173
25	17852	88	8054.5874037588
25	18087	89	8041.1508571156
25	18326	90	8026.6165338875
25	18565	91	8012.139089641
25	18804	92	7997.5875570524
25	19043	93	7982.9409804986
25	19282	94	7968.9153225709
25	19536	95	7954.1067681271
25	19807	96	7939.4976203046
25	20078	97	7925.6859564215
25	20349	98	7910.8987283857
25	20620	99	7896.5790617147
25	20897	100	7883.4846224469
25	21174	101	7871.2052013955
25	21451	102	7858.9794680443
25	21728	103	7850.2661088192
25	22005	104	7844.9961054422
25	22278	105	7841.0860387992
25	22545	106	7838.3909582663
25	22812	107	7840.0119783567
25	23079	108	7843.0608341435
25	23350	109	7847.1661461102
25	23621	110	7852.7312964773
25	23892	111	7859.6254014908
25	24163	112	7868.5838644627
25	24434	113	7878.9239329335
25	24779	114	7890.9054094462
25	25124	115	7905.0668350581
25	25469	116	7921.3026210304
25	25814	117	7937.751604802
25	26159	118	7954.3186605704
26	418	5	2415.1380053436
26	598	6	2413.0929685208
26	779	7	2409.9459189152
26	960	8	2405.1318401415
26	1141	9	2399.1200357637
26	1322	10	2392.1178230069
26	1503	11	2384.407632525
26	1684	12	2377.3718333471
26	1865	13	2370.2113133722
26	2046	14	2362.9740571066
26	2227	15	2355.3845787707
26	2408	16	2348.0347684518
26	2589	17	2340.1716757906
26	2770	18	2332.802603508
26	2951	19	2325.6199484192
26	3132	20	2317.9254315965
26	3313	21	2310.2045773825
26	3494	22	2303.0509472102
26	3675	23	2295.963019615
26	3856	24	2289.5530061084
26	4037	25	2286.0758330543
26	4218	26	2283.1940186334
26	4399	27	2282.0436817939
26	4580	28	2284.3274338666
26	4761	29	2288.5983562632
26	4942	30	2293.7696028881
26	5123	31	2300.4926451544
26	5346	32	2308.2573251285
26	5569	33	2317.2412826313
26	5798	34	2327.5573702793
26	6027	35	2338.1412658142
26	6256	36	2349.1655665599
26	6485	37	2360.3758121263
26	6714	38	2371.5762172457
26	6943	39	2382.5488412002
26	7172	40	2392.9478143915
26	7401	41	2402.7502435256
26	7630	42	2409.573182395
26	7859	43	2413.6153404584
26	8088	44	2416.1760879628
26	8317	45	2419.88762952
26	8546	46	2424.0720692554
26	8775	47	2428.6628750348
26	9004	48	2434.9450104336
26	9233	49	2442.7370013043
26	9462	50	2452.4321404886
26	9691	51	2463.4556035352
26	9920	52	2475.5475563558
26	10149	53	2487.3183359974
26	10378	54	2499.4371980293
26	10607	55	2511.5564679921
[...]
33	9691	51	-0.66111010494642
33	9920	52	0.069151467713528
33	10149	53	0.028892279602587
33	10378	54	-0.46486282986589
33	10607	55	-0.049350523273461
33	10836	56	0.88540618233383
33	11065	57	0.12220011779573
33	11300	58	-0.68196911427658
33	11535	59	0.49590342410374
33	11776	60	-0.55560136057902
33	12011	61	0.32084219816607
33	12246	62	-0.72714371730108
33	12477	63	-3.176236397657
33	12714	64	-0.68791625306476
33	12939	65	1.6951142302249
33	13158	66	1.8430399890523
33	13383	67	1.0242977966791
33	13608	68	0.2007331083063
33	13833	69	0.23401913109701
33	14034	70	-0.11321310971398
33	14241	71	0.0066126899793773
33	14442	72	-0.29935824910645
33	14643	73	0.33862669286318
33	14838	74	0.043215258070266
33	15033	75	-0.18434374367352
33	15228	76	-0.55352740893141
33	15423	77	0.083277429454029
33	15618	78	0.23828755726572
33	15813	79	0.022656523482873
33	16008	80	0.294124538498
33	16203	81	-0.22009802518878
33	16442	82	0.46893964910414
33	16677	83	-0.23706799391657
33	16912	84	-0.29448290930595
33	17147	85	-0.38703907874878
33	17382	86	0.59879851446021
33	17617	87	0.2331266653724
33	17852	88	-0.73118555673864
33	18087	89	-0.044352380209602
33	18326	90	-0.097920671035535
33	18565	91	-0.30951521615498
33	18804	92	1.1635062981863
33	19043	93	-0.40780785800889
33	19282	94	-0.39646047477145
33	19536	95	-0.16977540566586
33	19807	96	0.49688007507939
33	20078	97	-3.06896047793
33	20349	98	-4.3663730432396
33	20620	99	-4.0310518429894
33	20897	100	-3.5140825525857
33	21174	101	-4.5
33	21451	102	-4.4501653161133
33	21728	103	-3.8147148852469
33	22005	104	-3.6360218010975
33	22278	105	-0.057004309853583
33	22545	106	-0.071874384976367
33	22812	107	-0.010474421404098
33	23079	108	-0.00024273186773008
33	23350	109	-0.00042328938946997
33	23621	110	-0.00016725431688671
33	23892	111	0
33	24163	112	0
33	24434	113	0
33	24779	114	0
33	25124	115	0
33	25469	116	0
33	25814	117	0
33	26159	118	0
34	598	6	2.6786124171986
34	779	7	3.022450770385
34	960	8	5.7179942519597
34	1141	9	5.2110568147645
34	1322	10	5.801543003092
34	1503	11	7.3600817462656
34	1684	12	3.6162769999687
34	1865	13	0.973
34	2046	14	0.973
34	2227	15	5.6668360102319
34	2408	16	0.973
34	2589	17	6.8414049266297
34	2770	18	7.8499047964105
34	2951	19	8.2043581838533
34	3132	20	11.987175135501
34	3313	21	0.973
34	3494	22	3.4065729898193
34	3675	23	3.5776123780435
34	3856	24	0.973
34	4037	25	1.234559771752
34	4218	26	4.0361800078627
34	4399	27	0.99567754363704
34	4580	28	5.0106790521765
34	4761	29	0.973
34	4942	30	4.2980524875761
34	5123	31	0.973
34	5346	32	0.973
34	5569	33	0.973
34	5798	34	4.1958237035116
34	6027	35	1.764591803646
34	6256	36	2.0167987465632
34	6485	37	5.7377381508755
34	6714	38	5.9962368441174
34	6943	39	7.8320742632271
34	7172	40	7.4475733697643
34	7401	41	9.9899877504072
34	7630	42	9.1437548495455
34	7859	43	13.311875484608
34	8088	44	13.817474460887
34	8317	45	15.910363457149
34	8546	46	21.003165496546
34	8775	47	22.738988622041
34	9004	48	16.78758089832
34	9233	49	6.1293214356029
34	9462	50	12.868532504955
34	9691	51	0.48233052997725
34	9920	52	6.0324923668764
34	10149	53	5.736666955492
34	10378	54	1.8918751883684
34	10607	55	4.9848569929226
34	10836	56	12.439536750733
34	11065	57	6.6211956902893
34	11300	58	0.31030718244865
34	11535	59	9.4190145794934
34	11776	60	1.2528439061363
34	12011	61	7.9822023229074
34	12246	62	-0.096162255686128
34	12477	63	0.973
34	12714	64	-0.24697811540145
34	12939	65	16.38754582256
34	13158	66	18.765076708413
34	13383	67	13.318514004661
34	13608	68	7.1326149195205
34	13833	69	7.4776068410957
34	14034	70	4.7671078799722
34	14241	71	5.6895383715162
34	14442	72	3.2629153290847
34	14643	73	8.2560408391598
34	14838	74	5.9988182843185
34	15033	75	4.1937499525803
34	15228	76	1.2619378396343
34	15423	77	6.0811521827195
34	15618	78	7.3408491514415
34	15813	79	5.709314476844
34	16008	80	7.8912081563995
34	16203	81	3.8829516471251
34	16442	82	9.3439750368482
34	16677	83	3.8162922144332
34	16912	84	3.2999135597251
34	17147	85	2.5074472565669
34	17382	86	10.196710304938
34	17617	87	7.4856875130708
34	17852	88	-0.064770772586332
34	18087	89	5.100385943767
34	18326	90	4.668225799949
34	18565	91	3.0057992900353
34	18804	92	14.652927796131
34	19043	93	2.4415920135214
34	19282	94	2.4384575917349
34	19536	95	4.0958651032147
34	19807	96	9.2985608217832
34	20078	97	0.973
34	20349	98	0.973
34	20620	99	0.973
34	20897	100	0.973
34	21174	101	0.973
34	21451	102	0.973
34	21728	103	0.973
34	22005	104	0.973
34	22278	105	1.112869998144
34	22545	106	1.1103496145982
34	22812	107	1.1100380937466
34	23079	108	1.1100284532826
34	23350	109	1.1100080512862
34	23621	110	0.973
34	23892	111	0.973
34	24163	112	0.973
34	24434	113	0.973
34	24779	114	0.973
34	25124	115	0.973
34	25469	116	0.973
34	25814	117	0.973
34	26159	118	0.973
35	598	6	1.7152554555098
35	779	7	2.5400754326023
35	960	8	2.1827345938887
35	1141	9	1.7201388832182
35	1322	10	2.3980328541948
35	1503	11	2.5434896687279
35	1684	12	-4.1477875989375
35	1865	13	-3.3922433504411
35	2046	14	-1.528684944795
35	2227	15	0.55868356751744
35	2408	16	0.47505518533289
35	2589	17	1.4965369990096
35	2770	18	1.5423454139149
35	2951	19	2.3674352996983
35	3132	20	1.8312385037309
35	3313	21	2.529327815515
35	3494	22	2.4557177811861
35	3675	23	0.97563716394276
35	3856	24	-0.5941953298403
35	4037	25	0.70617410996929
35	4218	26	-0.84661446930841
35	4399	27	0.51563537116163
35	4580	28	0.65656135275494
35	4761	29	-1.0987224263605
35	4942	30	0.71590815882664
35	5123	31	0.0014834565808997
35	5346	32	-0.059585949475878
35	5569	33	-0.22760421424173
35	5798	34	0.00024345174897178
35	6027	35	0.41308504675981
35	6256	36	-2.3457448567436
35	6485	37	-4.4411105573876
35	6714	38	-3.797534389173
35	6943	39	-3.9017778969137
35	7172	40	0.70594152321227
35	7401	41	-0.70248213724699
35	7630	42	0.77601387829054
35	7859	43	2.0152664079564
35	8088	44	2.1991455138661
35	8317	45	1.7205195409479
35	8546	46	2.2990668435348
35	8775	47	1.6529342174064
35	9004	48	1.5858694023918
35	9233	49	2.0496117572067
35	9462	50	2.4794851154555
35	9691	51	2.0565801601624
35	9920	52	0.36951040961589
35	10149	53	0.42506590227131
35	10378	54	-0.21764215333387
35	10607	55	0.54527945481241
35	10836	56	-1.0166441832436
35	11065	57	-0.16214880694169
35	11300	58	0.40224928173702
35	11535	59	0.0058317887131132
35	11776	60	0.14224470104091
35	12011	61	0.37374367048033
35	12246	62	-0.50386621749495
35	12477	63	0.73195746024139
35	12714	64	-0.23542650425806
35	12939	65	-0.46080348251853
35	13158	66	0.27769069415517
35	13383	67	0.47302364215721
35	13608	68	-0.60620921044611
35	13833	69	0.21196227145847
35	14034	70	-0.13842443837784
35	14241	71	0.55847580323461
35	14442	72	-0.53802807526663
35	14643	73	-0.60461635901592
35	14838	74	0.81263262128923
35	15033	75	-0.023906890559008
35	15228	76	-0.04981795931235
35	15423	77	-0.11884201485664
35	15618	78	-0.37886082695331
35	15813	79	0.5971961267991
35	16008	80	-0.01214596917853
35	16203	81	-0.58038672760594
35	16442	82	0.17743423767388
35	16677	83	-0.31235045541544
35	16912	84	0.33951029521413
35	17147	85	0.27514687050134
35	17382	86	-0.64792796068359
35	17617	87	0.20555179431103
35	17852	88	0.33891158874612
35	18087	89	-0.13716371117625
35	18326	90	0.60720691038296
35	18565	91	-0.5316215611063
35	18804	92	-0.40995261918288
35	19043	93	0.50297459382564
35	19282	94	0.49357627350837
35	19536	95	-2.2170890194829
35	19807	96	-4.5
35	20078	97	-4.5
35	20349	98	-4.5
35	20620	99	-4.3625134344678
35	20897	100	-0.5422507471405
35	21174	101	-0.071604122989811
35	21451	102	1.9551215516869
35	21728	103	1.3487495984649
35	22005	104	2.5016913218657
35	22278	105	0.51358630346187
35	22545	106	0.51129312289413
35	22812	107	0.044264904223382
35	23079	108	0.32250094178598
35	23350	109	0.10804871732835
35	23621	110	-0.13297029209789
35	23892	111	-4.0154734444727
35	24163	112	-3.320377590484
35	24434	113	0.4663782855621
35	24779	114	0.27363158713561
35	25124	115	2.2320562760113
35	25469	116	2.0015709335217
35	25814	117	2.3578330506571
35	26159	118	-0.50011491218748
36	598	6	2.9572775987046
36	779	7	5.4475378523348
36	960	8	6.1741223065018
36	1141	9	6.0427391267003
36	1322	10	9.3388311865557
36	1503	11	11.610953549582
36	1684	12	0.973
36	1865	13	0.973
36	2046	14	0.973
36	2227	15	2.3950827190471
36	2408	16	2.3406988899712
36	2589	17	4.7864241640101
36	2770	18	5.5711916415606
36	2951	19	9.1876603432266
36	3132	20	8.5320880655991
36	3313	21	12.824445095099
36	3494	22	14.32190864606
36	3675	23	7.7296278466892
36	3856	24	0.973
36	4037	25	6.4335760319221
36	4218	26	0.973
36	4399	27	5.3898054555883
36	4580	28	6.2929904697104
36	4761	29	0.973
36	4942	30	6.4626367703788
36	5123	31	2.9175078276176
36	5346	32	2.6054239957213
36	5569	33	1.7491799291246
36	5798	34	2.8642386709672
36	6027	35	4.9938104695303
36	6256	36	0.973
36	6485	37	0.973
36	6714	38	0.973
36	6943	39	0.973
36	7172	40	2.6561313281947
36	7401	41	0.973
36	7630	42	2.7916027374698
36	7859	43	5.9980462198764
36	8088	44	7.7324832395063
36	8317	45	7.3036594779746
36	8546	46	10.620574329568
36	8775	47	9.1030687306768
36	9004	48	9.650207712528
36	9233	49	13.043860818796
36	9462	50	17.098660769535
36	9691	51	16.201221252099
36	9920	52	6.1238334619963
36	10149	53	6.6060257200796
36	10378	54	2.5605493358129
36	10607	55	7.4757689006898
36	10836	56	0.973
36	11065	57	2.7850940515957
36	11300	58	6.3168269410453
36	11535	59	3.8899437747241
36	11776	60	4.7630785440118
36	12011	61	6.3097460301375
36	12246	62	0.76840662508588
36	12477	63	8.6431417958226
36	12714	64	2.5004196374506
36	12939	65	1.0365397789385
36	13158	66	5.652120168982
36	13383	67	7.0294705021116
36	13608	68	0.15597719140421
36	13833	69	5.2666002710912
36	14034	70	3.0581946870362
36	14241	71	7.5791047315444
36	14442	72	0.58637049972801
36	14643	73	0.12457108606181
36	14838	74	9.0440018761045
36	15033	75	3.8135574165615
36	15228	76	3.6408238235802
36	15423	77	3.186704883691
36	15618	78	1.5225621325943
36	15813	79	7.708149861739
36	16008	80	3.895631544024
36	16203	81	0.29199771303695
36	16442	82	4.9697662482788
36	16677	83	1.9092748221368
36	16912	84	5.9753202783535
36	17147	85	5.6607801022923
36	17382	86	-0.13224165631909
36	17617	87	5.1038956090768
36	17852	88	6.0252180669233
36	18087	89	3.0464242226753
36	18326	90	7.8679202273478
36	18565	91	0.62152796691811
36	18804	92	1.3211560338088
36	19043	93	7.0535182424408
36	19282	94	7.1702028279773
36	19536	95	0.973
36	19807	96	0.973
36	20078	97	0.973
36	20349	98	0.973
36	20620	99	0.973
36	20897	100	0.973
36	21174	101	1.2980617096305
36	21451	102	5.0516077105923
36	21728	103	4.4822770099153
36	22005	104	8.6448252106938
36	22278	105	3.307790849995
36	22545	106	3.4097553718084
36	22812	107	2.0199003000331
36	23079	108	2.9083650270352
36	23350	109	2.2620832225999
36	23621	110	1.50673292017
36	23892	111	0.973
36	24163	112	0.973
36	24434	113	2.0700401799692
36	24779	114	1.8317726763892
36	25124	115	6.0681795366961
36	25469	116	6.7143808975245
36	25814	117	9.1455419762913
36	26159	118	0.973
37	598	6	2.208746208949
37	779	7	4.1928878997685
37	960	8	6.4717075231718
37	1141	9	8.0818452394567
37	1322	10	9.4132803196452
37	1503	11	10.365035574221
37	1684	12	9.4584315321773
37	1865	13	9.6260973635029
37	2046	14	9.7292562136093
37	2227	15	10.202758690123
37	2408	16	9.8805659339197
37	2589	17	10.570586465941
37	2770	18	9.9064603577034
37	2951	19	9.6558542474538
37	3132	20	10.343965013781
37	3313	21	10.379371142657
37	3494	22	9.6168351994727
37	3675	23	9.5285092949301
37	3856	24	8.6171694698891
37	4037	25	4.6744658888581
37	4218	26	4.0686744113357
37	4399	27	3.9997733046437
37	4580	28	4.7637904439957
37	4761	29	6.493964188676
37	4942	30	7.8629128030871
37	5123	31	10.22242777144
37	5346	32	11.806244414313
37	5569	33	13.660163514865
37	5798	34	15.685675723678
37	6027	35	16.092879288855
37	6256	36	16.745774306778
37	6485	37	16.96223065192
37	6714	38	16.916256996828
37	6943	39	16.572233304546
37	7172	40	15.705833952503
37	7401	41	14.804858275926
37	7630	42	10.304858275926
37	7859	43	6.1049742301266
37	8088	44	3.8526445613272
37	8317	45	4.3712306265866
37	8546	46	4.6974172940857
37	8775	47	6.2360176243501
37	9004	48	8.5334707996489
37	9233	49	10.58441474828
37	9462	50	13.169596303805
37	9691	51	14.973952970994
37	9920	52	16.425358537283
37	10149	53	15.989086191916
37	10378	54	16.461911230699
37	10607	55	16.462465352124
37	10836	56	16.305490932662
37	11065	57	16.392707620027
37	11300	58	15.713581628913
37	11535	59	16.584551402905
37	11776	60	16.284923366785
37	12011	61	16.641935907143
37	12246	62	16.363058670798
37	12477	63	15.753249100946
37	12714	64	16.553394254229
37	12939	65	16.712739724667
37	13158	66	16.901437010501
37	13383	67	16.930762385602
37	13608	68	16.503825774837
37	13833	69	16.845014320781
37	14034	70	15.704430536881
37	14241	71	16.211400309928
37	14442	72	16.860245706515
37	14643	73	15.904241808016
37	14838	74	16.716233099766
37	15033	75	16.512110036008
37	15228	76	16.606791833324
37	15423	77	15.814160108894
37	15618	78	16.273566070783
37	15813	79	16.760464077514
37	16008	80	15.72047834003
37	16203	81	16.82724084696
37	16442	82	16.320892118757
37	16677	83	16.244863276628
37	16912	84	15.824136954804
37	17147	85	16.416787477887
37	17382	86	15.819786981541
37	17617	87	16.960595586641
37	17852	88	16.821707089224
37	18087	89	16.58220654796
37	18326	90	16.419048888843
37	18565	91	16.354794174923
37	18804	92	16.438489857969
37	19043	93	16.568270632836
37	19282	94	15.913405914373
37	19536	95	16.818406217896
37	19807	96	16.591935661926
37	20078	97	15.686215329987
37	20349	98	16.794185339684
37	20620	99	16.678052330857
37	20897	100	16.718553737296
37	21174	101	15.732206406725
37	21451	102	15.663422546641
37	21728	103	11.163422546641
37	22005	104	6.7513642672342
37	22278	105	5.2006174565429
37	22545	106	6.0763006472165
37	22812	107	5.6965376164202
37	23079	108	5.4353868455995
37	23350	109	7.1215206458835
37	23621	110	8.5288384449805
37	23892	111	10.044717586939
37	24163	112	12.10030347683
37	24434	113	13.657732216702
37	24779	114	15.825794406715
37	25124	115	18.193057052688
37	25469	116	20.207601291677
37	25814	117	20.472954390667
37	26159	118	20.839945998907
38	779	7	1.9841416908195
38	960	8	2.2788196234033
38	1141	9	1.610137716285
38	1322	10	1.3314350801885
38	1503	11	0.95175525457598
38	1684	12	-0.90660404204391
38	1865	13	0.16766583132557
38	2046	14	0.10315885010641
38	2227	15	0.47350247651339
38	2408	16	-0.322192756203
38	2589	17	0.6900205320213
38	2770	18	-0.66412610823754
38	2951	19	-0.25060611024965
38	3132	20	0.68811076632701
38	3313	21	0.035406128875911
38	3494	22	-0.76253594318405
38	3675	23	-0.088325904542581
38	3856	24	-0.911339825041
38	4037	25	-3.9427035810309
38	4218	26	-0.60579147752248
38	4399	27	-0.068901106691919
38	4580	28	0.76401713935193
38	4761	29	1.7301737446804
38	4942	30	1.3689486144111
38	5123	31	2.3595149683533
38	5346	32	1.583816642873
38	5569	33	1.8539191005519
38	5798	34	2.0255122088129
38	6027	35	0.40720356517653
38	6256	36	0.65289501792286
38	6485	37	0.2164563451428
38	6714	38	-0.045973655092531
38	6943	39	-0.34402369228192
38	7172	40	-0.86639935204294
38	7401	41	-0.90097567657709
38	7630	42	-4.5
38	7859	43	-4.1998840457993
38	8088	44	-2.2523296687994
38	8317	45	0.51858606525946
38	8546	46	0.32618666749913
38	8775	47	1.5386003302643
38	9004	48	2.2974531752989
38	9233	49	2.0509439486312
38	9462	50	2.5851815555245
38	9691	51	1.8043566671899
38	9920	52	1.451405566289
38	10149	53	-0.43627234536689
38	10378	54	0.47282503878232
38	10607	55	0.00055412142537747
38	10836	56	-0.1569744194625
38	11065	57	0.087216687365437
38	11300	58	-0.67912599111442
38	11535	59	0.87096977399196
38	11776	60	-0.29962803611997
38	12011	61	0.35701254035812
38	12246	62	-0.27887723634485
38	12477	63	-0.6098095698515
38	12714	64	0.80014515328221
38	12939	65	0.15934547043871
38	13158	66	0.18869728583377
38	13383	67	0.029325375100598
38	13608	68	-0.42693661076482
38	13833	69	0.34118854594417
38	14034	70	-1.1405837839004
38	14241	71	0.5069697730476
38	14442	72	0.64884539658669
38	14643	73	-0.9560038984986
38	14838	74	0.81199129174929
38	15033	75	-0.20412306375801
38	15228	76	0.094681797316298
38	15423	77	-0.79263172443025
38	15618	78	0.45940596188884
38	15813	79	0.48689800673165
38	16008	80	-1.0399857374839
38	16203	81	1.1067625069292
38	16442	82	-0.50634872820228
38	16677	83	-0.076028842129745
38	16912	84	-0.4207263218239
38	17147	85	0.59265052308329
38	17382	86	-0.59700049634557
38	17617	87	1.1408086051
38	17852	88	-0.13888849741779
38	18087	89	-0.23950054126326
38	18326	90	-0.16315765911713
38	18565	91	-0.064254713919944
38	18804	92	0.083695683046244
38	19043	93	0.12978077486623
38	19282	94	-0.65486471846234
38	19536	95	0.90500030352269
38	19807	96	-0.22647055597045
38	20078	97	-0.90572033193894
38	20349	98	1.1079700096976
38	20620	99	-0.11613300882746
38	20897	100	0.040501406439581
38	21174	101	-0.98634733057115
38	21451	102	-0.068783860083771
38	21728	103	-4.5
38	22005	104	-4.4120582794072
38	22278	105	-1.5507468106913
38	22545	106	0.87568319067359
38	22812	107	-0.37976303079631
38	23079	108	-0.26115077082068
38	23350	109	1.686133800284
38	23621	110	1.4073177990969
38	23892	111	1.5158791419584
38	24163	112	2.0555858898908
38	24434	113	1.5574287398718
38	24779	114	2.168062190013
38	25124	115	2.3672626459738
38	25469	116	2.0145442389883
38	25814	117	0.26535309899014
38	26159	118	0.36699160824064
39	779	7	3.3240217372676
39	960	8	5.0014677217055
39	1141	9	4.6847377759843
39	1322	10	4.6616450922487
39	1503	11	4.090337924311
39	1684	12	0.973
39	1865	13	2.0457284173844
39	2046	14	1.9062980022009
39	2227	15	2.8645724425394
39	2408	16	0.973
39	2589	17	3.4868715732303
39	2770	18	0.973
39	2951	19	0.973
39	3132	20	3.4266242080584
39	3313	21	1.8025633119818
39	3494	22	0.973
39	3675	23	1.4467448124319
39	3856	24	0.973
39	4037	25	0.973
39	4218	26	0.973
39	4399	27	1.2424434048467
39	4580	28	2.2269399785389
39	4761	29	4.1563681820261
39	4942	30	4.1283204316198
39	5123	31	7.5147243045373
39	5346	32	6.3379970374302
39	5569	33	8.107724863632
39	5798	34	9.8801339302602
39	6027	35	3.8506239749196
39	6256	36	4.9865240602174
39	6485	37	3.2639484898553
39	6714	38	2.1857972534739
39	6943	39	0.95589688545253
39	7172	40	0.973
39	7401	41	0.973
39	7630	42	0.973
39	7859	43	0.973
39	8088	44	0.973
39	8317	45	1.8748971059386
39	8546	46	1.7154472694351
39	8775	47	3.7455599428819
39	9004	48	6.3039247934449
39	9233	49	6.9617702665622
39	9462	50	10.16134221757
39	9691	51	8.6539236506102
39	9920	52	8.0571359692232
39	10149	53	0.973
39	10378	54	4.1920814078118
39	10607	55	2.3184996876125
39	10836	56	1.6802005484228
39	11065	57	2.6522809143996
39	11300	58	0.973
39	11535	59	5.8125873835013
39	11776	60	1.1186050327049
39	12011	61	3.7704585138751
39	12246	62	1.2043330731134
39	12477	63	0.973
39	12714	64	5.5196283684828
39	12939	65	2.9892661417615
39	13158	66	3.1399448091664
39	13383	67	2.4947312875599
39	13608	68	0.973
39	13833	69	3.7492661163245
39	14034	70	0.973
39	14241	71	4.2663233684476
39	14442	72	5.0025601547333
39	14643	73	0.973
39	14838	74	5.6190961925223
39	15033	75	1.5101449428904
39	15228	76	2.7131378452575
39	15423	77	0.973
39	15618	78	4.0949209039809
39	15813	79	4.3201796592403
39	16008	80	0.973
39	16203	81	6.8502329446101
39	16442	82	0.973
39	16677	83	1.992021795143
39	16912	84	0.973
39	17147	85	4.6554661543539
39	17382	86	0.973
39	17617	87	7.0419470883331
39	17852	88	1.7981475752918
39	18087	89	1.3740177609624
39	18326	90	1.6653411603923
39	18565	91	2.049812733268
39	18804	92	2.6449217221606
39	19043	93	2.8476118073082
39	19282	94	0.973
39	19536	95	6.0289675826192
39	19807	96	1.4267698017508
39	20078	97	0.973
39	20349	98	6.8421198347143
39	20620	99	1.876320091047
39	20897	100	2.5113769823927
39	21174	101	0.973
39	21451	102	1.9609558938325
39	21728	103	0.973
39	22005	104	0.973
39	22278	105	0.973
39	22545	106	2.7061859038203
39	22812	107	0.973
39	23079	108	0.973
39	23350	109	4.3807957763581
39	23621	110	4.4714142052579
39	23892	111	5.3577861629653
39	24163	112	7.8518301295884
39	24434	113	7.130493563877
39	24779	114	10.508619794132
39	25124	115	12.923234716186
39	25469	116	12.65799373555
39	25814	117	4.1995725762982
39	26159	118	4.794615708727

